102911
  -OEChem-10031708433D

 23 23  0     1  0  0  0  0  0999 V2000
    1.9141    0.2131   -0.3321 O   0  0  0  0  0  0  0  0  0  0  0  0
    0.0813    2.3319    0.2234 O   0  0  0  0  0  0  0  0  0  0  0  0
    0.6219   -0.0080    0.2310 C   0  0  1  0  0  0  0  0  0  0  0  0
   -0.3299    1.0680   -0.2952 C   0  0  1  0  0  0  0  0  0  0  0  0
    0.1500   -1.4122   -0.1449 C   0  0  0  0  0  0  0  0  0  0  0  0
   -1.7734    0.8021    0.1307 C   0  0  0  0  0  0  0  0  0  0  0  0
   -1.2884   -1.6653    0.2911 C   0  0  0  0  0  0  0  0  0  0  0  0
   -2.2325   -0.5988   -0.2559 C   0  0  0  0  0  0  0  0  0  0  0  0
    2.8568   -0.7310    0.1519 C   0  0  0  0  0  0  0  0  0  0  0  0
    0.6997    0.0905    1.3224 H   0  0  0  0  0  0  0  0  0  0  0  0
   -0.2673    1.1322   -1.3884 H   0  0  0  0  0  0  0  0  0  0  0  0
    0.7754   -2.1818    0.3205 H   0  0  0  0  0  0  0  0  0  0  0  0
    0.2426   -1.5593   -1.2290 H   0  0  0  0  0  0  0  0  0  0  0  0
   -2.4345    1.5528   -0.3189 H   0  0  0  0  0  0  0  0  0  0  0  0
   -1.8683    0.9381    1.2160 H   0  0  0  0  0  0  0  0  0  0  0  0
   -1.3427   -1.6747    1.3867 H   0  0  0  0  0  0  0  0  0  0  0  0
   -1.6108   -2.6543   -0.0537 H   0  0  0  0  0  0  0  0  0  0  0  0
   -2.2814   -0.6789   -1.3488 H   0  0  0  0  0  0  0  0  0  0  0  0
   -3.2456   -0.7732    0.1235 H   0  0  0  0  0  0  0  0  0  0  0  0
    1.0049    2.4711   -0.0476 H   0  0  0  0  0  0  0  0  0  0  0  0
    3.8564   -0.3321   -0.0464 H   0  0  0  0  0  0  0  0  0  0  0  0
    2.7778   -1.6776   -0.3900 H   0  0  0  0  0  0  0  0  0  0  0  0
    2.7667   -0.8874    1.2317 H   0  0  0  0  0  0  0  0  0  0  0  0
  1  3  1  0  0  0  0
  1  9  1  0  0  0  0
  2  4  1  0  0  0  0
  2 20  1  0  0  0  0
  3  4  1  0  0  0  0
  3  5  1  0  0  0  0
  3 10  1  0  0  0  0
  4  6  1  0  0  0  0
  4 11  1  0  0  0  0
  5  7  1  0  0  0  0
  5 12  1  0  0  0  0
  5 13  1  0  0  0  0
  6  8  1  0  0  0  0
  6 14  1  0  0  0  0
  6 15  1  0  0  0  0
  7  8  1  0  0  0  0
  7 16  1  0  0  0  0
  7 17  1  0  0  0  0
  8 18  1  0  0  0  0
  8 19  1  0  0  0  0
  9 21  1  0  0  0  0
  9 22  1  0  0  0  0
  9 23  1  0  0  0  0
M  END
> <PUBCHEM_COMPOUND_CID>
102911

> <PUBCHEM_CONFORMER_RMSD>
0.4

> <PUBCHEM_CONFORMER_DIVERSEORDER>
8
6
21
7
9
20
14
13
11
10
18
2
15
12
5
16
19
4
1
17
3

> <PUBCHEM_MMFF94_PARTIAL_CHARGES>
6
1 -0.56
2 -0.68
20 0.4
3 0.28
4 0.28
9 0.28

> <PUBCHEM_EFFECTIVE_ROTOR_COUNT>
2.2

> <PUBCHEM_PHARMACOPHORE_FEATURES>
4
1 1 acceptor
1 2 acceptor
1 2 donor
6 3 4 5 6 7 8 rings

> <PUBCHEM_HEAVY_ATOM_COUNT>
9

> <PUBCHEM_ATOM_DEF_STEREO_COUNT>
0

> <PUBCHEM_ATOM_UDEF_STEREO_COUNT>
2

> <PUBCHEM_BOND_DEF_STEREO_COUNT>
0

> <PUBCHEM_BOND_UDEF_STEREO_COUNT>
0

> <PUBCHEM_ISOTOPIC_ATOM_COUNT>
0

> <PUBCHEM_COMPONENT_COUNT>
1

> <PUBCHEM_CACTVS_TAUTO_COUNT>
1

> <PUBCHEM_CONFORMER_ID>
000191FF00000008

> <PUBCHEM_MMFF94_ENERGY>
16.0357

> <PUBCHEM_FEATURE_SELFOVERLAP>
20.3

> <PUBCHEM_SHAPE_FINGERPRINT>
10857977 72 18341037601541258010
16714656 1 18410294683449414710
16945 1 18337955592965188431
18185500 45 18408322206897180307
21040471 1 17978513035664170844
23552423 10 17972038307998769502
241688 4 18410569621659948513
2748010 2 18338795735786468156
29004967 10 18342180015513113402
5084963 1 18272366434513117650

> <PUBCHEM_SHAPE_MULTIPOLES>
173.48
3.09
1.94
0.65
1.64
0.56
0
-0.78
-0.02
-0.42
0.14
-0.03
-0.02
-0.02

> <PUBCHEM_SHAPE_SELFOVERLAP>
334.256

> <PUBCHEM_SHAPE_VOLUME>
105.3

> <PUBCHEM_COORDINATE_TYPE>
2
5
10

$$$$
