137864
  -OEChem-05231711563D

 12 12  0     0  0  0  0  0  0999 V2000
   -0.6721   -0.3835   -0.0701 C   0  0  0  0  0  0  0  0  0  0  0  0
    0.0009    0.8354   -0.4705 C   0  0  0  0  0  0  0  0  0  0  0  0
    0.6708   -0.3855   -0.0702 C   0  0  0  0  0  0  0  0  0  0  0  0
   -1.8206   -0.9869    0.1429 C   0  0  0  0  0  0  0  0  0  0  0  0
    0.0032    1.9123    0.3251 C   0  0  0  0  0  0  0  0  0  0  0  0
    1.8177   -0.9918    0.1428 C   0  0  0  0  0  0  0  0  0  0  0  0
   -1.8551   -2.0144    0.4876 H   0  0  0  0  0  0  0  0  0  0  0  0
   -2.7602   -0.4712   -0.0211 H   0  0  0  0  0  0  0  0  0  0  0  0
    0.0046    2.9042   -0.1147 H   0  0  0  0  0  0  0  0  0  0  0  0
    0.0038    1.8444    1.4092 H   0  0  0  0  0  0  0  0  0  0  0  0
    2.7587   -0.4787   -0.0213 H   0  0  0  0  0  0  0  0  0  0  0  0
    1.8496   -2.0194    0.4875 H   0  0  0  0  0  0  0  0  0  0  0  0
  1  2  1  0  0  0  0
  1  3  1  0  0  0  0
  1  4  2  0  0  0  0
  2  3  1  0  0  0  0
  2  5  2  0  0  0  0
  3  6  2  0  0  0  0
  4  7  1  0  0  0  0
  4  8  1  0  0  0  0
  5  9  1  0  0  0  0
  5 10  1  0  0  0  0
  6 11  1  0  0  0  0
  6 12  1  0  0  0  0
M  END
> <PUBCHEM_COMPOUND_CID>
137864

> <PUBCHEM_CONFORMER_RMSD>
0.4

> <PUBCHEM_CONFORMER_DIVERSEORDER>
1

> <PUBCHEM_MMFF94_PARTIAL_CHARGES>
9
10 0.15
11 0.15
12 0.15
4 -0.3
5 -0.3
6 -0.3
7 0.15
8 0.15
9 0.15

> <PUBCHEM_EFFECTIVE_ROTOR_COUNT>
0

> <PUBCHEM_PHARMACOPHORE_FEATURES>
0

> <PUBCHEM_HEAVY_ATOM_COUNT>
6

> <PUBCHEM_ATOM_DEF_STEREO_COUNT>
0

> <PUBCHEM_ATOM_UDEF_STEREO_COUNT>
0

> <PUBCHEM_BOND_DEF_STEREO_COUNT>
0

> <PUBCHEM_BOND_UDEF_STEREO_COUNT>
0

> <PUBCHEM_ISOTOPIC_ATOM_COUNT>
0

> <PUBCHEM_COMPONENT_COUNT>
1

> <PUBCHEM_CACTVS_TAUTO_COUNT>
1

> <PUBCHEM_CONFORMER_ID>
00021A8800000001

> <PUBCHEM_MMFF94_ENERGY>
68.146

> <PUBCHEM_FEATURE_SELFOVERLAP>
0

> <PUBCHEM_SHAPE_FINGERPRINT>
137420 1 15677922440609225365
20096714 4 17478057519400812073
21040471 1 17402052197561582788
29004967 10 18335984267395734666
5943 1 11696375714394747349

> <PUBCHEM_SHAPE_MULTIPOLES>
123.48
1.87
1.72
0.68
0
0.92
0.01
-1.15
-0.15
0
-0.19
0
0.06
0

> <PUBCHEM_SHAPE_SELFOVERLAP>
246.26

> <PUBCHEM_SHAPE_VOLUME>
75.5

> <PUBCHEM_COORDINATE_TYPE>
2
5
10

$$$$
