138024
  -OEChem-07031707093D

 18 19  0     1  0  0  0  0  0999 V2000
   -0.6597   -0.6671   -0.6503 C   0  0  2  0  0  0  0  0  0  0  0  0
   -0.5186    0.8794   -0.5068 C   0  0  1  0  0  0  0  0  0  0  0  0
   -1.9709   -0.5580    0.1642 C   0  0  0  0  0  0  0  0  0  0  0  0
   -1.4848    0.8022    0.7015 C   0  0  0  0  0  0  0  0  0  0  0  0
    0.4204   -1.4798   -0.0230 C   0  0  0  0  0  0  0  0  0  0  0  0
    0.8454    1.3840   -0.2059 C   0  0  0  0  0  0  0  0  0  0  0  0
    1.5664   -0.8884    0.3410 C   0  0  0  0  0  0  0  0  0  0  0  0
    1.8020    0.5277    0.1793 C   0  0  0  0  0  0  0  0  0  0  0  0
   -0.8234   -0.9947   -1.6845 H   0  0  0  0  0  0  0  0  0  0  0  0
   -0.9577    1.4154   -1.3592 H   0  0  0  0  0  0  0  0  0  0  0  0
   -2.1473   -1.3254    0.9237 H   0  0  0  0  0  0  0  0  0  0  0  0
   -2.8656   -0.4823   -0.4654 H   0  0  0  0  0  0  0  0  0  0  0  0
   -2.2480    1.5847    0.7435 H   0  0  0  0  0  0  0  0  0  0  0  0
   -1.0026    0.7334    1.6841 H   0  0  0  0  0  0  0  0  0  0  0  0
    0.2733   -2.5455    0.1130 H   0  0  0  0  0  0  0  0  0  0  0  0
    1.0541    2.4432   -0.3077 H   0  0  0  0  0  0  0  0  0  0  0  0
    2.3645   -1.4756    0.7836 H   0  0  0  0  0  0  0  0  0  0  0  0
    2.7998    0.8919    0.4015 H   0  0  0  0  0  0  0  0  0  0  0  0
  1  2  1  0  0  0  0
  1  3  1  0  0  0  0
  1  5  1  0  0  0  0
  1  9  1  0  0  0  0
  2  4  1  0  0  0  0
  2  6  1  0  0  0  0
  2 10  1  0  0  0  0
  3  4  1  0  0  0  0
  3 11  1  0  0  0  0
  3 12  1  0  0  0  0
  4 13  1  0  0  0  0
  4 14  1  0  0  0  0
  5  7  2  0  0  0  0
  5 15  1  0  0  0  0
  6  8  2  0  0  0  0
  6 16  1  0  0  0  0
  7  8  1  0  0  0  0
  7 17  1  0  0  0  0
  8 18  1  0  0  0  0
M  END
> <PUBCHEM_COMPOUND_CID>
138024

> <PUBCHEM_CONFORMER_RMSD>
0.4

> <PUBCHEM_CONFORMER_DIVERSEORDER>
1
2
3

> <PUBCHEM_MMFF94_PARTIAL_CHARGES>
10
1 0.12
15 0.15
16 0.15
17 0.15
18 0.15
2 0.12
5 -0.27
6 -0.27
7 -0.15
8 -0.15

> <PUBCHEM_EFFECTIVE_ROTOR_COUNT>
0.4

> <PUBCHEM_PHARMACOPHORE_FEATURES>
2
4 1 2 3 4 rings
6 1 2 5 6 7 8 rings

> <PUBCHEM_HEAVY_ATOM_COUNT>
8

> <PUBCHEM_ATOM_DEF_STEREO_COUNT>
0

> <PUBCHEM_ATOM_UDEF_STEREO_COUNT>
2

> <PUBCHEM_BOND_DEF_STEREO_COUNT>
0

> <PUBCHEM_BOND_UDEF_STEREO_COUNT>
0

> <PUBCHEM_ISOTOPIC_ATOM_COUNT>
0

> <PUBCHEM_COMPONENT_COUNT>
1

> <PUBCHEM_CACTVS_TAUTO_COUNT>
1

> <PUBCHEM_CONFORMER_ID>
00021B2800000001

> <PUBCHEM_MMFF94_ENERGY>
21.2034

> <PUBCHEM_FEATURE_SELFOVERLAP>
10.635

> <PUBCHEM_SHAPE_FINGERPRINT>
137420 1 14740129968296632293
16945 1 18339080500750338459
18185500 45 18268421515525553678
21040471 1 18194684993107356060
21922407 69 16412908649201820878
23552423 10 18188495666298537094
29004967 10 17894351102699508441
5084963 1 18343585156944925594

> <PUBCHEM_SHAPE_MULTIPOLES>
164.64
2.29
1.53
0.79
0.12
0.05
0
0.02
0.38
-0.25
-0.04
0.11
-0.04
-0.16

> <PUBCHEM_SHAPE_SELFOVERLAP>
346.17

> <PUBCHEM_SHAPE_VOLUME>
91.5

> <PUBCHEM_COORDINATE_TYPE>
2
5
10

$$$$
