300296
  -OEChem-05231711433D

 24 25  0     1  0  0  0  0  0999 V2000
   -1.6673    1.4023    0.9210 O   0  0  0  0  0  0  0  0  0  0  0  0
   -0.4995   -1.4725   -0.3895 C   0  0  2  0  0  0  0  0  0  0  0  0
   -1.2140   -0.1943   -0.7653 C   0  0  1  0  0  0  0  0  0  0  0  0
   -1.9700   -1.3301   -0.1198 C   0  0  0  0  0  0  0  0  0  0  0  0
    0.4624   -1.5148    0.7574 C   0  0  0  0  0  0  0  0  0  0  0  0
   -0.9465    1.0539   -0.0074 C   0  0  0  0  0  0  0  0  0  0  0  0
    1.8986   -1.2136    0.3334 C   0  0  0  0  0  0  0  0  0  0  0  0
    0.2612    1.8435   -0.4486 C   0  0  0  0  0  0  0  0  0  0  0  0
    2.1146    0.0764   -0.4659 C   0  0  0  0  0  0  0  0  0  0  0  0
    1.5605    1.3491    0.1847 C   0  0  0  0  0  0  0  0  0  0  0  0
   -0.2118   -2.1442   -1.1906 H   0  0  0  0  0  0  0  0  0  0  0  0
   -1.3981   -0.0411   -1.8250 H   0  0  0  0  0  0  0  0  0  0  0  0
   -2.2972   -1.2264    0.9077 H   0  0  0  0  0  0  0  0  0  0  0  0
   -2.6526   -1.8960   -0.7430 H   0  0  0  0  0  0  0  0  0  0  0  0
    0.4341   -2.5204    1.1950 H   0  0  0  0  0  0  0  0  0  0  0  0
    0.1606   -0.8330    1.5608 H   0  0  0  0  0  0  0  0  0  0  0  0
    2.2732   -2.0494   -0.2715 H   0  0  0  0  0  0  0  0  0  0  0  0
    2.5248   -1.1842    1.2340 H   0  0  0  0  0  0  0  0  0  0  0  0
    0.3196    1.8447   -1.5427 H   0  0  0  0  0  0  0  0  0  0  0  0
    0.0880    2.8846   -0.1493 H   0  0  0  0  0  0  0  0  0  0  0  0
    1.7236   -0.0435   -1.4833 H   0  0  0  0  0  0  0  0  0  0  0  0
    3.1997    0.1987   -0.5815 H   0  0  0  0  0  0  0  0  0  0  0  0
    2.3058    2.1426    0.0426 H   0  0  0  0  0  0  0  0  0  0  0  0
    1.4473    1.2222    1.2673 H   0  0  0  0  0  0  0  0  0  0  0  0
  1  6  2  0  0  0  0
  2  3  1  0  0  0  0
  2  4  1  0  0  0  0
  2  5  1  0  0  0  0
  2 11  1  0  0  0  0
  3  4  1  0  0  0  0
  3  6  1  0  0  0  0
  3 12  1  0  0  0  0
  4 13  1  0  0  0  0
  4 14  1  0  0  0  0
  5  7  1  0  0  0  0
  5 15  1  0  0  0  0
  5 16  1  0  0  0  0
  6  8  1  0  0  0  0
  7  9  1  0  0  0  0
  7 17  1  0  0  0  0
  7 18  1  0  0  0  0
  8 10  1  0  0  0  0
  8 19  1  0  0  0  0
  8 20  1  0  0  0  0
  9 10  1  0  0  0  0
  9 21  1  0  0  0  0
  9 22  1  0  0  0  0
 10 23  1  0  0  0  0
 10 24  1  0  0  0  0
M  END
> <PUBCHEM_COMPOUND_CID>
300296

> <PUBCHEM_CONFORMER_RMSD>
0.4

> <PUBCHEM_CONFORMER_DIVERSEORDER>
2
5
8
4
7
3
6
1

> <PUBCHEM_MMFF94_PARTIAL_CHARGES>
11
1 -0.57
11 0.1
12 0.1
13 0.1
14 0.1
2 -0.19
3 -0.1
4 -0.2
5 0.09
6 0.51
8 0.06

> <PUBCHEM_EFFECTIVE_ROTOR_COUNT>
1.2

> <PUBCHEM_PHARMACOPHORE_FEATURES>
1
1 1 acceptor

> <PUBCHEM_HEAVY_ATOM_COUNT>
10

> <PUBCHEM_ATOM_DEF_STEREO_COUNT>
0

> <PUBCHEM_ATOM_UDEF_STEREO_COUNT>
2

> <PUBCHEM_BOND_DEF_STEREO_COUNT>
0

> <PUBCHEM_BOND_UDEF_STEREO_COUNT>
0

> <PUBCHEM_ISOTOPIC_ATOM_COUNT>
0

> <PUBCHEM_COMPONENT_COUNT>
1

> <PUBCHEM_CACTVS_TAUTO_COUNT>
3

> <PUBCHEM_CONFORMER_ID>
0004950800000002

> <PUBCHEM_MMFF94_ENERGY>
17.9478

> <PUBCHEM_FEATURE_SELFOVERLAP>
5.074

> <PUBCHEM_SHAPE_FINGERPRINT>
16945 1 17974279125560051407
18185500 45 18336255752431333062
21040471 1 17908419160803509766
23235685 24 17832417975044550060
23552423 10 18263362666873877789
241688 4 18408316670795079744
2748010 2 18409722967541485078
5084963 1 17821723961844322278
528862 383 18045230335969808145
66348 1 18410007754017160526

> <PUBCHEM_SHAPE_MULTIPOLES>
199.93
2.6
2.19
0.86
0.27
0.25
0.04
-0.33
-0.11
0.08
0.28
-0.09
0.03
-0.3

> <PUBCHEM_SHAPE_SELFOVERLAP>
401.616

> <PUBCHEM_SHAPE_VOLUME>
117

> <PUBCHEM_COORDINATE_TYPE>
2
5
10

$$$$
