20656408
  -OEChem-05231711103D

  9 12  0     0  0  0  0  0  0999 V2000
   -0.0106    0.0000   -0.8178 C   0  0  0  0  0  0  0  0  0  0  0  0
    0.0124   -1.0648    0.1995 C   0  0  0  0  0  0  0  0  0  0  0  0
    1.0715   -0.0011    0.2045 C   0  0  0  0  0  0  0  0  0  0  0  0
   -1.0879    0.0011    0.2143 C   0  0  0  0  0  0  0  0  0  0  0  0
    0.0146    1.0649    0.1995 C   0  0  0  0  0  0  0  0  0  0  0  0
    0.0149   -2.0349   -0.2578 H   0  0  0  0  0  0  0  0  0  0  0  0
    2.0373   -0.0020   -0.2634 H   0  0  0  0  0  0  0  0  0  0  0  0
   -2.0482    0.0020   -0.2650 H   0  0  0  0  0  0  0  0  0  0  0  0
    0.0191    2.0350   -0.2580 H   0  0  0  0  0  0  0  0  0  0  0  0
  1  2  1  0  0  0  0
  1  3  1  0  0  0  0
  1  4  1  0  0  0  0
  1  5  1  0  0  0  0
  2  3  1  0  0  0  0
  2  4  1  0  0  0  0
  2  6  1  0  0  0  0
  3  5  1  0  0  0  0
  3  7  1  0  0  0  0
  4  5  1  0  0  0  0
  4  8  1  0  0  0  0
  5  9  1  0  0  0  0
M  END
> <PUBCHEM_COMPOUND_CID>
20656408

> <PUBCHEM_CONFORMER_RMSD>
0.4

> <PUBCHEM_CONFORMER_DIVERSEORDER>
1

> <PUBCHEM_MMFF94_PARTIAL_CHARGES>
8
2 -0.1
3 -0.1
4 -0.1
5 -0.1
6 0.1
7 0.1
8 0.1
9 0.1

> <PUBCHEM_EFFECTIVE_ROTOR_COUNT>
0

> <PUBCHEM_PHARMACOPHORE_FEATURES>
1
5 1 2 3 4 5 rings

> <PUBCHEM_HEAVY_ATOM_COUNT>
5

> <PUBCHEM_ATOM_DEF_STEREO_COUNT>
0

> <PUBCHEM_ATOM_UDEF_STEREO_COUNT>
0

> <PUBCHEM_BOND_DEF_STEREO_COUNT>
0

> <PUBCHEM_BOND_UDEF_STEREO_COUNT>
0

> <PUBCHEM_ISOTOPIC_ATOM_COUNT>
0

> <PUBCHEM_COMPONENT_COUNT>
1

> <PUBCHEM_CACTVS_TAUTO_COUNT>
1

> <PUBCHEM_CONFORMER_ID>
013B311800000001

> <PUBCHEM_MMFF94_ENERGY>
25.2378

> <PUBCHEM_FEATURE_SELFOVERLAP>
5.074

> <PUBCHEM_SHAPE_FINGERPRINT>
21015797 1 9222068565825322116
5943 1 9322818401131931847

> <PUBCHEM_SHAPE_MULTIPOLES>
102.9
1.08
1.07
0.78
0.01
0
0.1
0
-0.1
-0.01
-0.09
0
0
0

> <PUBCHEM_SHAPE_SELFOVERLAP>
236.765

> <PUBCHEM_SHAPE_VOLUME>
59.1

> <PUBCHEM_COORDINATE_TYPE>
2
5
10

$$$$
