564666
  -OEChem-05231711313D

 20 22  0     0  0  0  0  0  0999 V2000
    0.0001   -0.0001    0.7775 C   0  0  0  0  0  0  0  0  0  0  0  0
   -0.0001    0.0001   -0.7775 C   0  0  0  0  0  0  0  0  0  0  0  0
   -1.2447   -0.8642    0.7651 C   0  0  0  0  0  0  0  0  0  0  0  0
    1.3710   -0.6461    0.7648 C   0  0  0  0  0  0  0  0  0  0  0  0
   -0.1258    1.5101    0.7652 C   0  0  0  0  0  0  0  0  0  0  0  0
   -1.2857   -0.8023   -0.7649 C   0  0  0  0  0  0  0  0  0  0  0  0
    1.3375   -0.7119   -0.7653 C   0  0  0  0  0  0  0  0  0  0  0  0
   -0.0523    1.5146   -0.7649 C   0  0  0  0  0  0  0  0  0  0  0  0
   -2.1173   -0.4218    1.2572 H   0  0  0  0  0  0  0  0  0  0  0  0
   -1.1041   -1.8727    1.1690 H   0  0  0  0  0  0  0  0  0  0  0  0
    1.4243   -1.6232    1.2565 H   0  0  0  0  0  0  0  0  0  0  0  0
    2.1741   -0.0201    1.1687 H   0  0  0  0  0  0  0  0  0  0  0  0
    0.6938    2.0446    1.2568 H   0  0  0  0  0  0  0  0  0  0  0  0
   -1.0694    1.8925    1.1694 H   0  0  0  0  0  0  0  0  0  0  0  0
   -1.2240   -1.7788   -1.2569 H   0  0  0  0  0  0  0  0  0  0  0  0
   -2.1569   -0.2749   -1.1686 H   0  0  0  0  0  0  0  0  0  0  0  0
    2.1522   -0.1701   -1.2572 H   0  0  0  0  0  0  0  0  0  0  0  0
    1.3163   -1.7300   -1.1695 H   0  0  0  0  0  0  0  0  0  0  0  0
   -0.9291    1.9492   -1.2565 H   0  0  0  0  0  0  0  0  0  0  0  0
    0.8398    2.0053   -1.1691 H   0  0  0  0  0  0  0  0  0  0  0  0
  1  2  1  0  0  0  0
  1  3  1  0  0  0  0
  1  4  1  0  0  0  0
  1  5  1  0  0  0  0
  2  6  1  0  0  0  0
  2  7  1  0  0  0  0
  2  8  1  0  0  0  0
  3  6  1  0  0  0  0
  3  9  1  0  0  0  0
  3 10  1  0  0  0  0
  4  7  1  0  0  0  0
  4 11  1  0  0  0  0
  4 12  1  0  0  0  0
  5  8  1  0  0  0  0
  5 13  1  0  0  0  0
  5 14  1  0  0  0  0
  6 15  1  0  0  0  0
  6 16  1  0  0  0  0
  7 17  1  0  0  0  0
  7 18  1  0  0  0  0
  8 19  1  0  0  0  0
  8 20  1  0  0  0  0
M  END
> <PUBCHEM_COMPOUND_CID>
564666

> <PUBCHEM_CONFORMER_RMSD>
0.4

> <PUBCHEM_CONFORMER_DIVERSEORDER>
1

> <PUBCHEM_MMFF94_PARTIAL_CHARGES>
0

> <PUBCHEM_EFFECTIVE_ROTOR_COUNT>
1.2

> <PUBCHEM_PHARMACOPHORE_FEATURES>
1
8 1 2 3 4 5 6 7 8 rings

> <PUBCHEM_HEAVY_ATOM_COUNT>
8

> <PUBCHEM_ATOM_DEF_STEREO_COUNT>
0

> <PUBCHEM_ATOM_UDEF_STEREO_COUNT>
0

> <PUBCHEM_BOND_DEF_STEREO_COUNT>
0

> <PUBCHEM_BOND_UDEF_STEREO_COUNT>
0

> <PUBCHEM_ISOTOPIC_ATOM_COUNT>
0

> <PUBCHEM_COMPONENT_COUNT>
1

> <PUBCHEM_CACTVS_TAUTO_COUNT>
1

> <PUBCHEM_CONFORMER_ID>
00089DBA00000001

> <PUBCHEM_MMFF94_ENERGY>
40.5925

> <PUBCHEM_FEATURE_SELFOVERLAP>
5.074

> <PUBCHEM_SHAPE_FINGERPRINT>
12423570 1 10653100915245097293
13024252 1 16011890392016780662
137420 1 15670795547961196550
16945 1 17975675505311431056
21040471 1 16825308325224591177
29004967 10 18335985379808056074
369184 2 17970897870081427650
5084963 1 17038942313467563469
5943 1 12404261830305917945
68250623 7 14881049309624824051

> <PUBCHEM_SHAPE_MULTIPOLES>
164.64
1.48
1.48
1.21
0.17
0.63
0
-0.63
0
-0.17
0
0
0
0

> <PUBCHEM_SHAPE_SELFOVERLAP>
365.653

> <PUBCHEM_SHAPE_VOLUME>
94.2

> <PUBCHEM_COORDINATE_TYPE>
2
5
10

$$$$
