14791558
  -OEChem-05231711473D

 21 22  0     0  0  0  0  0  0999 V2000
    0.6297    0.1533    1.1194 O   0  0  0  0  0  0  0  0  0  0  0  0
   -0.6315    0.2671   -1.0834 O   0  0  0  0  0  0  0  0  0  0  0  0
   -0.0027   -0.5093   -0.0179 C   0  0  0  0  0  0  0  0  0  0  0  0
    1.4429   -0.0705    0.0038 C   0  0  0  0  0  0  0  0  0  0  0  0
   -1.4462   -0.0638    0.0042 C   0  0  0  0  0  0  0  0  0  0  0  0
    1.8112    1.1621   -0.7336 C   0  0  0  0  0  0  0  0  0  0  0  0
    2.5856   -0.9885    0.2459 C   0  0  0  0  0  0  0  0  0  0  0  0
   -2.4864   -1.0716   -0.3134 C   0  0  0  0  0  0  0  0  0  0  0  0
   -1.9027    1.1211    0.7751 C   0  0  0  0  0  0  0  0  0  0  0  0
    1.9268    0.9525   -1.8025 H   0  0  0  0  0  0  0  0  0  0  0  0
    1.0800    1.9705   -0.6195 H   0  0  0  0  0  0  0  0  0  0  0  0
    2.7657    1.5615   -0.3716 H   0  0  0  0  0  0  0  0  0  0  0  0
    3.3647   -0.5006    0.8410 H   0  0  0  0  0  0  0  0  0  0  0  0
    2.2666   -1.8864    0.7863 H   0  0  0  0  0  0  0  0  0  0  0  0
    3.0279   -1.3124   -0.7019 H   0  0  0  0  0  0  0  0  0  0  0  0
   -2.0873   -1.9011   -0.9079 H   0  0  0  0  0  0  0  0  0  0  0  0
   -2.9030   -1.4944    0.6068 H   0  0  0  0  0  0  0  0  0  0  0  0
   -3.3063   -0.6208   -0.8825 H   0  0  0  0  0  0  0  0  0  0  0  0
   -2.1190    0.8415    1.8114 H   0  0  0  0  0  0  0  0  0  0  0  0
   -1.1627    1.9288    0.7901 H   0  0  0  0  0  0  0  0  0  0  0  0
   -2.8189    1.5360    0.3407 H   0  0  0  0  0  0  0  0  0  0  0  0
  1  3  1  0  0  0  0
  1  4  1  0  0  0  0
  2  3  1  0  0  0  0
  2  5  1  0  0  0  0
  3  4  1  0  0  0  0
  3  5  1  0  0  0  0
  4  6  1  0  0  0  0
  4  7  1  0  0  0  0
  5  8  1  0  0  0  0
  5  9  1  0  0  0  0
  6 10  1  0  0  0  0
  6 11  1  0  0  0  0
  6 12  1  0  0  0  0
  7 13  1  0  0  0  0
  7 14  1  0  0  0  0
  7 15  1  0  0  0  0
  8 16  1  0  0  0  0
  8 17  1  0  0  0  0
  8 18  1  0  0  0  0
  9 19  1  0  0  0  0
  9 20  1  0  0  0  0
  9 21  1  0  0  0  0
M  END
> <PUBCHEM_COMPOUND_CID>
14791558

> <PUBCHEM_CONFORMER_RMSD>
0.4

> <PUBCHEM_CONFORMER_DIVERSEORDER>
1

> <PUBCHEM_MMFF94_PARTIAL_CHARGES>
9
1 -0.3
2 -0.3
3 0.3
4 -0.04
5 -0.04
6 0.09
7 0.09
8 0.09
9 0.09

> <PUBCHEM_EFFECTIVE_ROTOR_COUNT>
0.8

> <PUBCHEM_PHARMACOPHORE_FEATURES>
4
1 1 acceptor
1 2 acceptor
3 4 6 7 hydrophobe
3 5 8 9 hydrophobe

> <PUBCHEM_HEAVY_ATOM_COUNT>
9

> <PUBCHEM_ATOM_DEF_STEREO_COUNT>
0

> <PUBCHEM_ATOM_UDEF_STEREO_COUNT>
0

> <PUBCHEM_BOND_DEF_STEREO_COUNT>
0

> <PUBCHEM_BOND_UDEF_STEREO_COUNT>
0

> <PUBCHEM_ISOTOPIC_ATOM_COUNT>
0

> <PUBCHEM_COMPONENT_COUNT>
1

> <PUBCHEM_CACTVS_TAUTO_COUNT>
1

> <PUBCHEM_CONFORMER_ID>
00E1B38600000001

> <PUBCHEM_MMFF94_ENERGY>
32.064

> <PUBCHEM_FEATURE_SELFOVERLAP>
20.313

> <PUBCHEM_SHAPE_FINGERPRINT>
15310529 11 17988363757942847988
16945 1 18127418851620822496
21040471 1 17559125267609894857
23552423 10 18409732841624169926
24536 1 18339346526698030389
29004967 10 18041280955028168930
369184 2 16486680399026306250
5084963 1 18334848424628870234

> <PUBCHEM_SHAPE_MULTIPOLES>
173.48
3.5
1.2
0.95
0.11
0.09
0.01
-0.6
0.03
-0.05
-0.02
-0.01
0.16
-0.54

> <PUBCHEM_SHAPE_SELFOVERLAP>
350.229

> <PUBCHEM_SHAPE_VOLUME>
105.3

> <PUBCHEM_COORDINATE_TYPE>
2
5
10

$$$$
