12739605
  -OEChem-10061706083D

 14 15  0     1  0  0  0  0  0999 V2000
    0.6771   -0.7545   -0.3892 C   0  0  1  0  0  0  0  0  0  0  0  0
    0.6693    0.7631   -0.3934 C   0  0  2  0  0  0  0  0  0  0  0  0
    1.5651    0.0138    0.5526 C   0  0  0  0  0  0  0  0  0  0  0  0
   -0.7130   -1.2084    0.0102 C   0  0  0  0  0  0  0  0  0  0  0  0
   -0.7021    1.1227   -0.0024 C   0  0  0  0  0  0  0  0  0  0  0  0
   -1.4963    0.0633    0.2222 C   0  0  0  0  0  0  0  0  0  0  0  0
    1.1136   -1.2872   -1.2206 H   0  0  0  0  0  0  0  0  0  0  0  0
    1.0974    1.2745   -1.2444 H   0  0  0  0  0  0  0  0  0  0  0  0
    2.6290    0.0196    0.3453 H   0  0  0  0  0  0  0  0  0  0  0  0
    1.3261    0.0095    1.6095 H   0  0  0  0  0  0  0  0  0  0  0  0
   -0.6802   -1.8058    0.9266 H   0  0  0  0  0  0  0  0  0  0  0  0
   -1.1674   -1.8017   -0.7895 H   0  0  0  0  0  0  0  0  0  0  0  0
   -1.0268    2.1502    0.0872 H   0  0  0  0  0  0  0  0  0  0  0  0
   -2.5338    0.1089    0.5156 H   0  0  0  0  0  0  0  0  0  0  0  0
  1  2  1  0  0  0  0
  1  3  1  0  0  0  0
  1  4  1  0  0  0  0
  1  7  1  0  0  0  0
  2  3  1  0  0  0  0
  2  5  1  0  0  0  0
  2  8  1  0  0  0  0
  3  9  1  0  0  0  0
  3 10  1  0  0  0  0
  4  6  1  0  0  0  0
  4 11  1  0  0  0  0
  4 12  1  0  0  0  0
  5  6  2  0  0  0  0
  5 13  1  0  0  0  0
  6 14  1  0  0  0  0
M  END
> <PUBCHEM_COMPOUND_CID>
12739605

> <PUBCHEM_CONFORMER_RMSD>
0.4

> <PUBCHEM_CONFORMER_DIVERSEORDER>
1

> <PUBCHEM_MMFF94_PARTIAL_CHARGES>
12
1 -0.19
10 0.1
13 0.15
14 0.15
2 -0.06
3 -0.2
4 0.23
5 -0.19
6 -0.29
7 0.1
8 0.1
9 0.1

> <PUBCHEM_EFFECTIVE_ROTOR_COUNT>
0.4

> <PUBCHEM_PHARMACOPHORE_FEATURES>
1
6 1 2 3 4 5 6 rings

> <PUBCHEM_HEAVY_ATOM_COUNT>
6

> <PUBCHEM_ATOM_DEF_STEREO_COUNT>
2

> <PUBCHEM_ATOM_UDEF_STEREO_COUNT>
0

> <PUBCHEM_BOND_DEF_STEREO_COUNT>
0

> <PUBCHEM_BOND_UDEF_STEREO_COUNT>
0

> <PUBCHEM_ISOTOPIC_ATOM_COUNT>
0

> <PUBCHEM_COMPONENT_COUNT>
1

> <PUBCHEM_CACTVS_TAUTO_COUNT>
1

> <PUBCHEM_CONFORMER_ID>
00C2641500000001

> <PUBCHEM_MMFF94_ENERGY>
19.8366

> <PUBCHEM_FEATURE_SELFOVERLAP>
5.074

> <PUBCHEM_SHAPE_FINGERPRINT>
20096714 4 18411706469243275480
21015797 1 9291411448479683253
21040471 1 18339367344520695069
29004967 10 15068339008093640312
5943 1 11247068568495899142

> <PUBCHEM_SHAPE_MULTIPOLES>
123.48
1.72
1.26
0.73
0.06
0.06
-0.01
-0.02
-0.25
-0.19
0.07
0.1
0
0

> <PUBCHEM_SHAPE_SELFOVERLAP>
256.667

> <PUBCHEM_SHAPE_VOLUME>
71.6

> <PUBCHEM_COORDINATE_TYPE>
2
5
10

$$$$
