92172615
  -OEChem-10061704313D

 15 14  0     1  0  0  0  0  0999 V2000
    1.5428    1.1012    0.9306 Cl  0  0  0  0  0  0  0  0  0  0  0  0
   -2.4161   -0.5311    0.0948 Cl  0  0  0  0  0  0  0  0  0  0  0  0
    1.1363   -1.8183    0.0348 O   0  0  0  0  0  0  0  0  0  0  0  0
    0.1880    0.4296   -0.0688 C   0  0  1  0  0  0  0  0  0  0  0  0
    0.7312   -0.7806   -0.8492 C   0  0  0  0  0  0  0  0  0  0  0  0
   -0.9466    0.0691    0.9082 C   0  0  0  0  0  0  0  0  0  0  0  0
   -0.2356    1.5301   -1.0504 C   0  0  0  0  0  0  0  0  0  0  0  0
    1.5956   -0.4973   -1.4612 H   0  0  0  0  0  0  0  0  0  0  0  0
   -0.0310   -1.1885   -1.5217 H   0  0  0  0  0  0  0  0  0  0  0  0
   -0.6365   -0.7037    1.6193 H   0  0  0  0  0  0  0  0  0  0  0  0
   -1.2539    0.9457    1.4891 H   0  0  0  0  0  0  0  0  0  0  0  0
   -0.6323    2.4049   -0.5224 H   0  0  0  0  0  0  0  0  0  0  0  0
    0.6110    1.8663   -1.6608 H   0  0  0  0  0  0  0  0  0  0  0  0
   -1.0085    1.1803   -1.7429 H   0  0  0  0  0  0  0  0  0  0  0  0
    1.4664   -2.5492   -0.5151 H   0  0  0  0  0  0  0  0  0  0  0  0
  1  4  1  0  0  0  0
  2  6  1  0  0  0  0
  3  5  1  0  0  0  0
  3 15  1  0  0  0  0
  4  5  1  0  0  0  0
  4  6  1  0  0  0  0
  4  7  1  0  0  0  0
  5  8  1  0  0  0  0
  5  9  1  0  0  0  0
  6 10  1  0  0  0  0
  6 11  1  0  0  0  0
  7 12  1  0  0  0  0
  7 13  1  0  0  0  0
  7 14  1  0  0  0  0
M  END
> <PUBCHEM_COMPOUND_CID>
92172615

> <PUBCHEM_CONFORMER_RMSD>
0.4

> <PUBCHEM_CONFORMER_DIVERSEORDER>
1
6
3
8
4
2
7
5
9

> <PUBCHEM_MMFF94_PARTIAL_CHARGES>
7
1 -0.29
15 0.4
2 -0.29
3 -0.68
4 0.29
5 0.28
6 0.29

> <PUBCHEM_EFFECTIVE_ROTOR_COUNT>
2

> <PUBCHEM_PHARMACOPHORE_FEATURES>
2
1 3 acceptor
1 3 donor

> <PUBCHEM_HEAVY_ATOM_COUNT>
7

> <PUBCHEM_ATOM_DEF_STEREO_COUNT>
1

> <PUBCHEM_ATOM_UDEF_STEREO_COUNT>
0

> <PUBCHEM_BOND_DEF_STEREO_COUNT>
0

> <PUBCHEM_BOND_UDEF_STEREO_COUNT>
0

> <PUBCHEM_ISOTOPIC_ATOM_COUNT>
0

> <PUBCHEM_COMPONENT_COUNT>
1

> <PUBCHEM_CACTVS_TAUTO_COUNT>
1

> <PUBCHEM_CONFORMER_ID>
057E714700000001

> <PUBCHEM_MMFF94_ENERGY>
11.9922

> <PUBCHEM_FEATURE_SELFOVERLAP>
10.148

> <PUBCHEM_SHAPE_FINGERPRINT>
137420 1 17201641039086240972
21040471 1 17837783587429618161
23552449 11 18201440242388203795
24536 1 18044399307464574777
29004967 10 18261118495143617219
5943 1 17036957682099995524

> <PUBCHEM_SHAPE_MULTIPOLES>
141.93
2.29
1.62
1.14
1.42
0.54
-0.05
-0.09
0.62
-0.6
-0.35
-0.17
-0.28
0.2

> <PUBCHEM_SHAPE_SELFOVERLAP>
239.175

> <PUBCHEM_SHAPE_VOLUME>
97.7

> <PUBCHEM_COORDINATE_TYPE>
2
5
10

$$$$
