3022709
  -OEChem-11211707283D

 14 14  0     0  0  0  0  0  0999 V2000
    2.2620   -0.0001   -0.1594 O   0  0  0  0  0  0  0  0  0  0  0  0
   -2.0738   -0.0002   -0.5889 O   0  0  0  0  0  0  0  0  0  0  0  0
    0.8428    0.0000   -0.4206 C   0  0  0  0  0  0  0  0  0  0  0  0
   -1.0827    0.0001    0.4839 C   0  0  0  0  0  0  0  0  0  0  0  0
    0.0259    1.0638    0.3423 C   0  0  0  0  0  0  0  0  0  0  0  0
    0.0259   -1.0635    0.3426 C   0  0  0  0  0  0  0  0  0  0  0  0
    0.6521   -0.0002   -1.5007 H   0  0  0  0  0  0  0  0  0  0  0  0
   -1.5867    0.0036    1.4557 H   0  0  0  0  0  0  0  0  0  0  0  0
    0.4615    1.3852    1.2952 H   0  0  0  0  0  0  0  0  0  0  0  0
   -0.2418    1.9494   -0.2408 H   0  0  0  0  0  0  0  0  0  0  0  0
   -0.2410   -1.9495   -0.2402 H   0  0  0  0  0  0  0  0  0  0  0  0
    0.4613   -1.3844    1.2957 H   0  0  0  0  0  0  0  0  0  0  0  0
    2.3507    0.0001    0.8089 H   0  0  0  0  0  0  0  0  0  0  0  0
   -2.5956   -0.8070   -0.4388 H   0  0  0  0  0  0  0  0  0  0  0  0
  1  3  1  0  0  0  0
  1 13  1  0  0  0  0
  2  4  1  0  0  0  0
  2 14  1  0  0  0  0
  3  5  1  0  0  0  0
  3  6  1  0  0  0  0
  3  7  1  0  0  0  0
  4  5  1  0  0  0  0
  4  6  1  0  0  0  0
  4  8  1  0  0  0  0
  5  9  1  0  0  0  0
  5 10  1  0  0  0  0
  6 11  1  0  0  0  0
  6 12  1  0  0  0  0
M  END
> <PUBCHEM_COMPOUND_CID>
3022709

> <PUBCHEM_CONFORMER_RMSD>
0.4

> <PUBCHEM_CONFORMER_DIVERSEORDER>
1

> <PUBCHEM_MMFF94_PARTIAL_CHARGES>
6
1 -0.66
13 0.4
14 0.4
2 -0.66
3 0.26
4 0.26

> <PUBCHEM_EFFECTIVE_ROTOR_COUNT>
0.8

> <PUBCHEM_PHARMACOPHORE_FEATURES>
5
1 1 acceptor
1 1 donor
1 2 acceptor
1 2 donor
4 3 4 5 6 rings

> <PUBCHEM_HEAVY_ATOM_COUNT>
6

> <PUBCHEM_ATOM_DEF_STEREO_COUNT>
0

> <PUBCHEM_ATOM_UDEF_STEREO_COUNT>
0

> <PUBCHEM_BOND_DEF_STEREO_COUNT>
0

> <PUBCHEM_BOND_UDEF_STEREO_COUNT>
0

> <PUBCHEM_ISOTOPIC_ATOM_COUNT>
0

> <PUBCHEM_COMPONENT_COUNT>
1

> <PUBCHEM_CACTVS_TAUTO_COUNT>
1

> <PUBCHEM_CONFORMER_ID>
002E1F7500000001

> <PUBCHEM_MMFF94_ENERGY>
9.2509

> <PUBCHEM_FEATURE_SELFOVERLAP>
25.371

> <PUBCHEM_SHAPE_FINGERPRINT>
139733 1 11674877809692853473
20096714 4 13262401076392706895
21015797 1 9437959830039096225
21040471 1 18260547826880789827
29004967 10 17275389827930743599
5460574 1 9367349227668347502
5943 1 10854289892313997985

> <PUBCHEM_SHAPE_MULTIPOLES>
111.74
2.17
1
0.75
0.3
0
0
0
-0.42
0.01
0.14
-0.13
0
0

> <PUBCHEM_SHAPE_SELFOVERLAP>
212.713

> <PUBCHEM_SHAPE_VOLUME>
70.6

> <PUBCHEM_COORDINATE_TYPE>
2
5
10

$$$$
