29922413
  -OEChem-12051807183D

 45 47  0     1  0  0  0  0  0999 V2000
    4.4809    1.6344   -2.0699 F   0  0  0  0  0  0  0  0  0  0  0  0
    0.0591    0.5770    1.7887 O   0  0  0  0  0  0  0  0  0  0  0  0
   -3.8095    2.9956   -0.2876 N   0  0  0  0  0  0  0  0  0  0  0  0
   -2.1222   -5.7855   -0.5933 N   0  0  0  0  0  0  0  0  0  0  0  0
    0.4305    0.4858    0.3766 C   0  0  2  0  0  0  0  0  0  0  0  0
   -0.2678    1.6098   -0.3799 C   0  0  0  0  0  0  0  0  0  0  0  0
   -0.0439   -0.8779   -0.0337 C   0  0  0  0  0  0  0  0  0  0  0  0
   -0.7223   -1.4732    1.0209 C   0  0  0  0  0  0  0  0  0  0  0  0
   -1.7287    1.7441    0.0464 C   0  0  0  0  0  0  0  0  0  0  0  0
    1.9144    0.6309    0.3056 C   0  0  0  0  0  0  0  0  0  0  0  0
   -0.7555   -0.5530    2.1801 C   0  0  0  0  0  0  0  0  0  0  0  0
   -2.4119    2.8946   -0.6909 C   0  0  0  0  0  0  0  0  0  0  0  0
    0.1042   -1.5354   -1.2460 C   0  0  0  0  0  0  0  0  0  0  0  0
   -1.2702   -2.7389    0.9029 C   0  0  0  0  0  0  0  0  0  0  0  0
    2.5162    1.0742   -0.8720 C   0  0  0  0  0  0  0  0  0  0  0  0
    2.6993    0.3225    1.4168 C   0  0  0  0  0  0  0  0  0  0  0  0
   -0.4397   -2.8145   -1.3794 C   0  0  0  0  0  0  0  0  0  0  0  0
   -1.1226   -3.4132   -0.3104 C   0  0  0  0  0  0  0  0  0  0  0  0
    3.9030    1.2093   -0.9386 C   0  0  0  0  0  0  0  0  0  0  0  0
    4.0860    0.4574    1.3502 C   0  0  0  0  0  0  0  0  0  0  0  0
    4.6879    0.9010    0.1727 C   0  0  0  0  0  0  0  0  0  0  0  0
   -4.5877    3.7105   -1.3008 C   0  0  0  0  0  0  0  0  0  0  0  0
   -3.9251    3.6667    1.0083 C   0  0  0  0  0  0  0  0  0  0  0  0
   -1.6744   -4.7225   -0.4666 C   0  0  0  0  0  0  0  0  0  0  0  0
    0.2186    2.5709   -0.1608 H   0  0  0  0  0  0  0  0  0  0  0  0
   -0.2235    1.4645   -1.4666 H   0  0  0  0  0  0  0  0  0  0  0  0
   -2.2751    0.8156   -0.1577 H   0  0  0  0  0  0  0  0  0  0  0  0
   -1.7803    1.9313    1.1228 H   0  0  0  0  0  0  0  0  0  0  0  0
   -1.7683   -0.2010    2.3949 H   0  0  0  0  0  0  0  0  0  0  0  0
   -0.3131   -1.0009    3.0740 H   0  0  0  0  0  0  0  0  0  0  0  0
   -1.8737    3.8392   -0.5382 H   0  0  0  0  0  0  0  0  0  0  0  0
   -2.3492    2.6711   -1.7644 H   0  0  0  0  0  0  0  0  0  0  0  0
    0.6258   -1.0757   -2.0784 H   0  0  0  0  0  0  0  0  0  0  0  0
   -1.8009   -3.1863    1.7381 H   0  0  0  0  0  0  0  0  0  0  0  0
    1.9435    1.3061   -1.7641 H   0  0  0  0  0  0  0  0  0  0  0  0
    2.2729   -0.0419    2.3468 H   0  0  0  0  0  0  0  0  0  0  0  0
   -0.3272   -3.3382   -2.3263 H   0  0  0  0  0  0  0  0  0  0  0  0
    4.6981    0.2135    2.2137 H   0  0  0  0  0  0  0  0  0  0  0  0
    5.7676    1.0052    0.1202 H   0  0  0  0  0  0  0  0  0  0  0  0
   -4.5580    3.1782   -2.2581 H   0  0  0  0  0  0  0  0  0  0  0  0
   -4.2197    4.7308   -1.4596 H   0  0  0  0  0  0  0  0  0  0  0  0
   -5.6425    3.7653   -1.0088 H   0  0  0  0  0  0  0  0  0  0  0  0
   -3.4404    3.0988    1.8078 H   0  0  0  0  0  0  0  0  0  0  0  0
   -4.9790    3.7498    1.2989 H   0  0  0  0  0  0  0  0  0  0  0  0
   -3.4999    4.6770    0.9923 H   0  0  0  0  0  0  0  0  0  0  0  0
  1 19  1  0  0  0  0
  2  5  1  0  0  0  0
  2 11  1  0  0  0  0
  3 12  1  0  0  0  0
  3 22  1  0  0  0  0
  3 23  1  0  0  0  0
  4 24  3  0  0  0  0
  5  6  1  0  0  0  0
  5  7  1  0  0  0  0
  5 10  1  0  0  0  0
  6  9  1  0  0  0  0
  6 25  1  0  0  0  0
  6 26  1  0  0  0  0
  7  8  2  0  0  0  0
  7 13  1  0  0  0  0
  8 11  1  0  0  0  0
  8 14  1  0  0  0  0
  9 12  1  0  0  0  0
  9 27  1  0  0  0  0
  9 28  1  0  0  0  0
 10 15  2  0  0  0  0
 10 16  1  0  0  0  0
 11 29  1  0  0  0  0
 11 30  1  0  0  0  0
 12 31  1  0  0  0  0
 12 32  1  0  0  0  0
 13 17  2  0  0  0  0
 13 33  1  0  0  0  0
 14 18  2  0  0  0  0
 14 34  1  0  0  0  0
 15 19  1  0  0  0  0
 15 35  1  0  0  0  0
 16 20  2  0  0  0  0
 16 36  1  0  0  0  0
 17 18  1  0  0  0  0
 17 37  1  0  0  0  0
 18 24  1  0  0  0  0
 19 21  2  0  0  0  0
 20 21  1  0  0  0  0
 20 38  1  0  0  0  0
 21 39  1  0  0  0  0
 22 40  1  0  0  0  0
 22 41  1  0  0  0  0
 22 42  1  0  0  0  0
 23 43  1  0  0  0  0
 23 44  1  0  0  0  0
 23 45  1  0  0  0  0
M  END
> <PUBCHEM_COMPOUND_CID>
29922413

> <PUBCHEM_CONFORMER_RMSD>
0.8

> <PUBCHEM_CONFORMER_DIVERSEORDER>
1
21
19
23
11
13
6
7
24
9
25
14
2
12
15
8
18
16
5
20
17
22
10
4
3

> <PUBCHEM_MMFF94_PARTIAL_CHARGES>
29
1 -0.19
10 -0.14
11 0.42
12 0.27
13 -0.15
14 -0.15
15 -0.15
16 -0.15
17 -0.15
18 0.07
19 0.19
2 -0.56
20 -0.15
21 -0.15
22 0.27
23 0.27
24 0.48
3 -0.81
33 0.15
34 0.15
35 0.15
36 0.15
37 0.15
38 0.15
39 0.15
4 -0.56
5 0.57
7 -0.14
8 -0.14

> <PUBCHEM_EFFECTIVE_ROTOR_COUNT>
5.6

> <PUBCHEM_PHARMACOPHORE_FEATURES>
6
1 2 acceptor
1 3 cation
1 4 acceptor
5 2 5 7 8 11 rings
6 10 15 16 19 20 21 rings
6 7 8 13 14 17 18 rings

> <PUBCHEM_HEAVY_ATOM_COUNT>
24

> <PUBCHEM_ATOM_DEF_STEREO_COUNT>
1

> <PUBCHEM_ATOM_UDEF_STEREO_COUNT>
0

> <PUBCHEM_BOND_DEF_STEREO_COUNT>
0

> <PUBCHEM_BOND_UDEF_STEREO_COUNT>
0

> <PUBCHEM_ISOTOPIC_ATOM_COUNT>
0

> <PUBCHEM_COMPONENT_COUNT>
1

> <PUBCHEM_CACTVS_TAUTO_COUNT>
1

> <PUBCHEM_CONFORMER_ID>
01C8946D00000001

> <PUBCHEM_MMFF94_ENERGY>
66.6858

> <PUBCHEM_FEATURE_SELFOVERLAP>
30.527

> <PUBCHEM_SHAPE_FINGERPRINT>
10554248 39 16617014639780346487
10721379 63 17408246867495127021
10815517 723 18056771038619188227
11386260 185 17187547882169796063
11488393 25 17470445127775818931
12293681 4 18195511813452189799
12553582 1 17830743414978589970
12633257 1 13539413226218355182
12788726 201 18189897697920839002
133893 2 17620486704958448593
13540713 5 17895468237570143080
13590594 115 17831020487872181067
13681431 1 17186157011852919624
13911987 19 17402088524506665574
13955234 65 17837768924939186849
14004458 79 18194404617695027484
14251757 17 16486958601243582973
15664445 248 16970550495565948276
15906896 17 18260548956578501802
17539 30 18267018551605010022
17980427 23 12685674161309611493
17980427 26 17122309024563470449
1813 80 17622171582395949958
18915476 22 17979375061781992401
20567600 347 18196925578919933973
20602899 9 18199479783101709808
21524375 3 18187922816277076704
22907989 373 18268722786217918444
23419403 2 17545931097974771843
23559900 14 17113803100160072869
23598288 3 18187937221934374144
3057174 1 18265900146648207957
4409770 3 18338230565767698807
458136 41 18124321493370123425
6442390 28 18341335505047807881
6786 2 18266471922728001047
9999458 23 16662340481504107800

> <PUBCHEM_SHAPE_MULTIPOLES>
470.8
7.23
6.47
1.68
1.46
12.29
0.27
-13.04
-1.38
6.04
-2.15
-0.51
-0.29
-0.2

> <PUBCHEM_SHAPE_SELFOVERLAP>
1015.074

> <PUBCHEM_SHAPE_VOLUME>
263

> <PUBCHEM_COORDINATE_TYPE>
2
5
10

$$$$
