637146
  -OEChem-10031708423D

 14 13  0     1  0  0  0  0  0999 V2000
   -0.6676   -1.6174    0.1283 Cl  0  0  0  0  0  0  0  0  0  0  0  0
   -0.4719    0.0940   -0.3571 C   0  0  2  0  0  0  0  0  0  0  0  0
    0.7900    0.7010    0.2674 C   0  0  0  0  0  0  0  0  0  0  0  0
   -1.7171    0.8692    0.0566 C   0  0  0  0  0  0  0  0  0  0  0  0
    2.0665   -0.0468   -0.0952 C   0  0  0  0  0  0  0  0  0  0  0  0
   -0.3855    0.1020   -1.4489 H   0  0  0  0  0  0  0  0  0  0  0  0
    0.8886    1.7405   -0.0691 H   0  0  0  0  0  0  0  0  0  0  0  0
    0.6964    0.7324    1.3601 H   0  0  0  0  0  0  0  0  0  0  0  0
   -1.6417    1.9156   -0.2582 H   0  0  0  0  0  0  0  0  0  0  0  0
   -2.6150    0.4480   -0.4084 H   0  0  0  0  0  0  0  0  0  0  0  0
   -1.8586    0.8549    1.1430 H   0  0  0  0  0  0  0  0  0  0  0  0
    2.9376    0.5026    0.2768 H   0  0  0  0  0  0  0  0  0  0  0  0
    2.1693   -0.1450   -1.1806 H   0  0  0  0  0  0  0  0  0  0  0  0
    2.0973   -1.0456    0.3496 H   0  0  0  0  0  0  0  0  0  0  0  0
  1  2  1  0  0  0  0
  2  3  1  0  0  0  0
  2  4  1  0  0  0  0
  2  6  1  0  0  0  0
  3  5  1  0  0  0  0
  3  7  1  0  0  0  0
  3  8  1  0  0  0  0
  4  9  1  0  0  0  0
  4 10  1  0  0  0  0
  4 11  1  0  0  0  0
  5 12  1  0  0  0  0
  5 13  1  0  0  0  0
  5 14  1  0  0  0  0
M  END
> <PUBCHEM_COMPOUND_CID>
637146

> <PUBCHEM_CONFORMER_RMSD>
0.4

> <PUBCHEM_CONFORMER_DIVERSEORDER>
1
3
2

> <PUBCHEM_MMFF94_PARTIAL_CHARGES>
2
1 -0.29
2 0.29

> <PUBCHEM_EFFECTIVE_ROTOR_COUNT>
1

> <PUBCHEM_PHARMACOPHORE_FEATURES>
1
1 5 hydrophobe

> <PUBCHEM_HEAVY_ATOM_COUNT>
5

> <PUBCHEM_ATOM_DEF_STEREO_COUNT>
1

> <PUBCHEM_ATOM_UDEF_STEREO_COUNT>
0

> <PUBCHEM_BOND_DEF_STEREO_COUNT>
0

> <PUBCHEM_BOND_UDEF_STEREO_COUNT>
0

> <PUBCHEM_ISOTOPIC_ATOM_COUNT>
0

> <PUBCHEM_COMPONENT_COUNT>
1

> <PUBCHEM_CACTVS_TAUTO_COUNT>
1

> <PUBCHEM_CONFORMER_ID>
0009B8DA00000001

> <PUBCHEM_MMFF94_ENERGY>
0.3179

> <PUBCHEM_FEATURE_SELFOVERLAP>
5.074

> <PUBCHEM_SHAPE_FINGERPRINT>
139733 1 9653653272306944642
16714656 1 18333455317726946660
20096714 4 18411978027151153112
21040471 1 18410291367761009956
24536 1 18195793275185035460
5460574 1 8286195059009809348
5943 1 7828297308509195183

> <PUBCHEM_SHAPE_MULTIPOLES>
104.77
2.3
1.43
0.67
0.82
0.64
0
-0.39
0.02
-0.58
-0.1
0
0
0.05

> <PUBCHEM_SHAPE_SELFOVERLAP>
168.509

> <PUBCHEM_SHAPE_VOLUME>
75.2

> <PUBCHEM_COORDINATE_TYPE>
2
5
10

$$$$
