140991
  -OEChem-05241703543D

 23 24  0     1  0  0  0  0  0999 V2000
   -1.1760    0.7958    0.5107 C   0  0  1  0  0  0  0  0  0  0  0  0
   -0.6237   -0.3641    1.3258 C   0  0  0  0  0  0  0  0  0  0  0  0
   -0.0197    1.7621    0.1024 C   0  0  0  0  0  0  0  0  0  0  0  0
   -1.8451    0.0694   -0.6775 C   0  0  0  0  0  0  0  0  0  0  0  0
   -0.0882   -1.1633    0.1773 C   0  0  0  0  0  0  0  0  0  0  0  0
    1.2288    1.2060   -0.6400 C   0  0  0  0  0  0  0  0  0  0  0  0
    1.3841   -1.3228    0.0324 C   0  0  0  0  0  0  0  0  0  0  0  0
    2.0301    0.0831    0.0674 C   0  0  0  0  0  0  0  0  0  0  0  0
   -0.8903   -1.0664   -0.8984 C   0  0  0  0  0  0  0  0  0  0  0  0
   -1.9202    1.3653    1.0788 H   0  0  0  0  0  0  0  0  0  0  0  0
   -1.4089   -0.9200    1.8507 H   0  0  0  0  0  0  0  0  0  0  0  0
    0.1283   -0.0537    2.0559 H   0  0  0  0  0  0  0  0  0  0  0  0
    0.3361    2.2554    1.0170 H   0  0  0  0  0  0  0  0  0  0  0  0
   -0.4496    2.5568   -0.5208 H   0  0  0  0  0  0  0  0  0  0  0  0
   -1.9193    0.7186   -1.5548 H   0  0  0  0  0  0  0  0  0  0  0  0
   -2.8392   -0.3119   -0.4219 H   0  0  0  0  0  0  0  0  0  0  0  0
    1.9136    2.0534   -0.7772 H   0  0  0  0  0  0  0  0  0  0  0  0
    0.9527    0.8872   -1.6521 H   0  0  0  0  0  0  0  0  0  0  0  0
    1.7915   -1.9540    0.8290 H   0  0  0  0  0  0  0  0  0  0  0  0
    1.6299   -1.8090   -0.9196 H   0  0  0  0  0  0  0  0  0  0  0  0
    2.2160    0.3804    1.1072 H   0  0  0  0  0  0  0  0  0  0  0  0
    3.0184    0.0080   -0.4034 H   0  0  0  0  0  0  0  0  0  0  0  0
   -0.6237   -1.3963   -1.8939 H   0  0  0  0  0  0  0  0  0  0  0  0
  1  2  1  0  0  0  0
  1  3  1  0  0  0  0
  1  4  1  0  0  0  0
  1 10  1  0  0  0  0
  2  5  1  0  0  0  0
  2 11  1  0  0  0  0
  2 12  1  0  0  0  0
  3  6  1  0  0  0  0
  3 13  1  0  0  0  0
  3 14  1  0  0  0  0
  4  9  1  0  0  0  0
  4 15  1  0  0  0  0
  4 16  1  0  0  0  0
  5  7  1  0  0  0  0
  5  9  2  0  0  0  0
  6  8  1  0  0  0  0
  6 17  1  0  0  0  0
  6 18  1  0  0  0  0
  7  8  1  0  0  0  0
  7 19  1  0  0  0  0
  7 20  1  0  0  0  0
  8 21  1  0  0  0  0
  8 22  1  0  0  0  0
  9 23  1  0  0  0  0
M  END
> <PUBCHEM_COMPOUND_CID>
140991

> <PUBCHEM_CONFORMER_RMSD>
0.4

> <PUBCHEM_CONFORMER_DIVERSEORDER>
1
2

> <PUBCHEM_MMFF94_PARTIAL_CHARGES>
6
2 0.14
23 0.15
4 0.14
5 -0.28
7 0.14
9 -0.29

> <PUBCHEM_EFFECTIVE_ROTOR_COUNT>
1.2

> <PUBCHEM_PHARMACOPHORE_FEATURES>
2
5 1 2 4 5 9 rings
7 1 2 3 5 6 7 8 rings

> <PUBCHEM_HEAVY_ATOM_COUNT>
9

> <PUBCHEM_ATOM_DEF_STEREO_COUNT>
0

> <PUBCHEM_ATOM_UDEF_STEREO_COUNT>
1

> <PUBCHEM_BOND_DEF_STEREO_COUNT>
0

> <PUBCHEM_BOND_UDEF_STEREO_COUNT>
0

> <PUBCHEM_ISOTOPIC_ATOM_COUNT>
0

> <PUBCHEM_COMPONENT_COUNT>
1

> <PUBCHEM_CACTVS_TAUTO_COUNT>
1

> <PUBCHEM_CONFORMER_ID>
000226BF00000001

> <PUBCHEM_MMFF94_ENERGY>
35.9247

> <PUBCHEM_FEATURE_SELFOVERLAP>
11.539

> <PUBCHEM_SHAPE_FINGERPRINT>
12423570 1 12862118851905711331
13024252 1 17603591798517446838
137420 1 14541069169098001915
16945 1 18337950099733600421
18185500 45 18341889722984257934
21040471 1 18412830161616055744
241688 4 17903914461743697880
29004967 10 18334860506424641099
369184 2 16415194551256316002
5084963 1 17913769422933718850

> <PUBCHEM_SHAPE_MULTIPOLES>
185.22
2.12
1.68
1.03
0.45
0.29
0.13
0
-0.27
0.24
-0.09
-0.27
-0.09
-0.21

> <PUBCHEM_SHAPE_SELFOVERLAP>
384.469

> <PUBCHEM_SHAPE_VOLUME>
104.6

> <PUBCHEM_COORDINATE_TYPE>
2
5
10

$$$$
