140542
  -OEChem-05231711353D

  9 10  0     0  0  0  0  0  0999 V2000
    0.0000   -0.7118   -0.3349 N   0  0  0  0  0  0  0  0  0  0  0  0
    0.0000    0.7737   -0.2834 C   0  0  0  0  0  0  0  0  0  0  0  0
    1.1064   -0.0309    0.3091 C   0  0  0  0  0  0  0  0  0  0  0  0
   -1.1064   -0.0309    0.3091 C   0  0  0  0  0  0  0  0  0  0  0  0
    0.0000    1.1660   -1.2858 H   0  0  0  0  0  0  0  0  0  0  0  0
    2.0530   -0.0581   -0.2157 H   0  0  0  0  0  0  0  0  0  0  0  0
    1.1903   -0.1212    1.3857 H   0  0  0  0  0  0  0  0  0  0  0  0
   -1.1903   -0.1212    1.3858 H   0  0  0  0  0  0  0  0  0  0  0  0
   -2.0531   -0.0581   -0.2158 H   0  0  0  0  0  0  0  0  0  0  0  0
  1  2  1  0  0  0  0
  1  3  1  0  0  0  0
  1  4  1  0  0  0  0
  2  3  1  0  0  0  0
  2  4  1  0  0  0  0
  2  5  1  0  0  0  0
  3  6  1  0  0  0  0
  3  7  1  0  0  0  0
  4  8  1  0  0  0  0
  4  9  1  0  0  0  0
M  END
> <PUBCHEM_COMPOUND_CID>
140542

> <PUBCHEM_CONFORMER_RMSD>
0.4

> <PUBCHEM_CONFORMER_DIVERSEORDER>
1

> <PUBCHEM_MMFF94_PARTIAL_CHARGES>
9
1 -0.47
2 0.06
3 -0.04
4 -0.04
5 0.1
6 0.1
7 0.1
8 0.1
9 0.1

> <PUBCHEM_EFFECTIVE_ROTOR_COUNT>
0.4

> <PUBCHEM_PHARMACOPHORE_FEATURES>
2
1 1 cation
4 1 2 3 4 rings

> <PUBCHEM_HEAVY_ATOM_COUNT>
4

> <PUBCHEM_ATOM_DEF_STEREO_COUNT>
0

> <PUBCHEM_ATOM_UDEF_STEREO_COUNT>
0

> <PUBCHEM_BOND_DEF_STEREO_COUNT>
0

> <PUBCHEM_BOND_UDEF_STEREO_COUNT>
0

> <PUBCHEM_ISOTOPIC_ATOM_COUNT>
0

> <PUBCHEM_COMPONENT_COUNT>
1

> <PUBCHEM_CACTVS_TAUTO_COUNT>
1

> <PUBCHEM_CONFORMER_ID>
000224FE00000001

> <PUBCHEM_MMFF94_ENERGY>
9.5835

> <PUBCHEM_FEATURE_SELFOVERLAP>
10.148

> <PUBCHEM_SHAPE_FINGERPRINT>
139733 1 12031788067229616779
21015797 1 9146458449712807685
5943 1 12191408946237439821

> <PUBCHEM_SHAPE_MULTIPOLES>
77.34
1.25
0.86
0.69
0
0.08
-0.02
-0.05
-0.19
0
0.07
0
-0.01
0

> <PUBCHEM_SHAPE_SELFOVERLAP>
150.651

> <PUBCHEM_SHAPE_VOLUME>
49.5

> <PUBCHEM_COORDINATE_TYPE>
2
5
10

$$$$
