138310
  -OEChem-05241704003D

 13 14  0     0  0  0  0  0  0999 V2000
    1.7891    0.0002    0.5743 C   0  0  0  0  0  0  0  0  0  0  0  0
    0.8901   -0.7062   -0.3299 C   0  0  0  0  0  0  0  0  0  0  0  0
    0.8899    0.7061   -0.3299 C   0  0  0  0  0  0  0  0  0  0  0  0
   -0.3060   -1.3873   -0.1339 C   0  0  0  0  0  0  0  0  0  0  0  0
   -0.3062    1.3873   -0.1339 C   0  0  0  0  0  0  0  0  0  0  0  0
   -1.4784   -0.6962    0.1767 C   0  0  0  0  0  0  0  0  0  0  0  0
   -1.4786    0.6960    0.1766 C   0  0  0  0  0  0  0  0  0  0  0  0
    1.5933    0.0001    1.6427 H   0  0  0  0  0  0  0  0  0  0  0  0
    2.8540    0.0004    0.3643 H   0  0  0  0  0  0  0  0  0  0  0  0
   -0.3342   -2.4667   -0.2550 H   0  0  0  0  0  0  0  0  0  0  0  0
   -0.3344    2.4668   -0.2549 H   0  0  0  0  0  0  0  0  0  0  0  0
   -2.4005   -1.2411    0.3551 H   0  0  0  0  0  0  0  0  0  0  0  0
   -2.4008    1.2409    0.3550 H   0  0  0  0  0  0  0  0  0  0  0  0
  1  2  1  0  0  0  0
  1  3  1  0  0  0  0
  1  8  1  0  0  0  0
  1  9  1  0  0  0  0
  2  3  1  0  0  0  0
  2  4  2  0  0  0  0
  3  5  2  0  0  0  0
  4  6  1  0  0  0  0
  4 10  1  0  0  0  0
  5  7  1  0  0  0  0
  5 11  1  0  0  0  0
  6  7  2  0  0  0  0
  6 12  1  0  0  0  0
  7 13  1  0  0  0  0
M  END
> <PUBCHEM_COMPOUND_CID>
138310

> <PUBCHEM_CONFORMER_RMSD>
0.4

> <PUBCHEM_CONFORMER_DIVERSEORDER>
1

> <PUBCHEM_MMFF94_PARTIAL_CHARGES>
13
1 -0.14
10 0.15
11 0.15
12 0.15
13 0.15
2 -0.03
3 -0.03
4 -0.15
5 -0.15
6 -0.15
7 -0.15
8 0.1
9 0.1

> <PUBCHEM_EFFECTIVE_ROTOR_COUNT>
0.2

> <PUBCHEM_PHARMACOPHORE_FEATURES>
1
7 1 2 3 4 5 6 7 rings

> <PUBCHEM_HEAVY_ATOM_COUNT>
7

> <PUBCHEM_ATOM_DEF_STEREO_COUNT>
0

> <PUBCHEM_ATOM_UDEF_STEREO_COUNT>
0

> <PUBCHEM_BOND_DEF_STEREO_COUNT>
0

> <PUBCHEM_BOND_UDEF_STEREO_COUNT>
0

> <PUBCHEM_ISOTOPIC_ATOM_COUNT>
0

> <PUBCHEM_COMPONENT_COUNT>
1

> <PUBCHEM_CACTVS_TAUTO_COUNT>
1

> <PUBCHEM_CONFORMER_ID>
00021C4600000001

> <PUBCHEM_MMFF94_ENERGY>
62.378

> <PUBCHEM_FEATURE_SELFOVERLAP>
5.074

> <PUBCHEM_SHAPE_FINGERPRINT>
18185500 45 17977381960189965182
21040471 1 18266745670910768469
23552423 10 18187936040802861638
29004967 10 15068337908645270552

> <PUBCHEM_SHAPE_MULTIPOLES>
144.06
1.95
1.45
0.71
0.09
0
-0.02
0
-0.29
-0.25
0.1
0.1
0
0

> <PUBCHEM_SHAPE_SELFOVERLAP>
310.45

> <PUBCHEM_SHAPE_VOLUME>
77.1

> <PUBCHEM_COORDINATE_TYPE>
2
5
10

$$$$
