12814978
  -OEChem-07031707063D

 14 15  0     1  0  0  0  0  0999 V2000
   -2.2281    0.0001    0.8687 O   0  0  0  0  0  0  0  0  0  0  0  0
   -0.5319   -0.8283   -0.7490 C   0  0  2  0  0  0  0  0  0  0  0  0
   -0.5319    0.8279   -0.7492 C   0  0  1  0  0  0  0  0  0  0  0  0
   -1.3453    0.0000    0.0476 C   0  0  0  0  0  0  0  0  0  0  0  0
    0.6478   -1.4308   -0.1125 C   0  0  0  0  0  0  0  0  0  0  0  0
    0.6476    1.4308   -0.1127 C   0  0  0  0  0  0  0  0  0  0  0  0
    1.6710   -0.7251    0.4035 C   0  0  0  0  0  0  0  0  0  0  0  0
    1.6708    0.7254    0.4035 C   0  0  0  0  0  0  0  0  0  0  0  0
   -0.9634   -1.3387   -1.5985 H   0  0  0  0  0  0  0  0  0  0  0  0
   -0.9634    1.3382   -1.5989 H   0  0  0  0  0  0  0  0  0  0  0  0
    0.6909   -2.5155   -0.0759 H   0  0  0  0  0  0  0  0  0  0  0  0
    0.6904    2.5156   -0.0761 H   0  0  0  0  0  0  0  0  0  0  0  0
    2.5198   -1.2289    0.8532 H   0  0  0  0  0  0  0  0  0  0  0  0
    2.5194    1.2294    0.8533 H   0  0  0  0  0  0  0  0  0  0  0  0
  1  4  2  0  0  0  0
  2  3  1  0  0  0  0
  2  4  1  0  0  0  0
  2  5  1  0  0  0  0
  2  9  1  0  0  0  0
  3  4  1  0  0  0  0
  3  6  1  0  0  0  0
  3 10  1  0  0  0  0
  5  7  2  0  0  0  0
  5 11  1  0  0  0  0
  6  8  2  0  0  0  0
  6 12  1  0  0  0  0
  7  8  1  0  0  0  0
  7 13  1  0  0  0  0
  8 14  1  0  0  0  0
M  END
> <PUBCHEM_COMPOUND_CID>
12814978

> <PUBCHEM_CONFORMER_RMSD>
0.4

> <PUBCHEM_CONFORMER_DIVERSEORDER>
1

> <PUBCHEM_MMFF94_PARTIAL_CHARGES>
14
1 -0.57
10 0.1
11 0.15
12 0.15
13 0.15
14 0.15
2 -0.06
3 -0.06
4 0.57
5 -0.19
6 -0.19
7 -0.15
8 -0.15
9 0.1

> <PUBCHEM_EFFECTIVE_ROTOR_COUNT>
0

> <PUBCHEM_PHARMACOPHORE_FEATURES>
2
1 1 acceptor
7 2 3 4 5 6 7 8 rings

> <PUBCHEM_HEAVY_ATOM_COUNT>
8

> <PUBCHEM_ATOM_DEF_STEREO_COUNT>
0

> <PUBCHEM_ATOM_UDEF_STEREO_COUNT>
2

> <PUBCHEM_BOND_DEF_STEREO_COUNT>
0

> <PUBCHEM_BOND_UDEF_STEREO_COUNT>
0

> <PUBCHEM_ISOTOPIC_ATOM_COUNT>
0

> <PUBCHEM_COMPONENT_COUNT>
1

> <PUBCHEM_CACTVS_TAUTO_COUNT>
6

> <PUBCHEM_CONFORMER_ID>
00C38A8200000001

> <PUBCHEM_MMFF94_ENERGY>
37.4917

> <PUBCHEM_FEATURE_SELFOVERLAP>
10.148

> <PUBCHEM_SHAPE_FINGERPRINT>
12423570 1 10741163674846960789
18185500 45 17980180195934315358
21040471 1 18268710700105762652
29004967 10 18113617880505980176
5084963 1 18200579406203274470

> <PUBCHEM_SHAPE_MULTIPOLES>
158.77
2.2
1.45
0.86
0.3
0
-0.01
0
0.66
-0.43
-0.14
0.23
0
0

> <PUBCHEM_SHAPE_SELFOVERLAP>
338.676

> <PUBCHEM_SHAPE_VOLUME>
85.7

> <PUBCHEM_COORDINATE_TYPE>
2
5
10

$$$$
