16201897
  -OEChem-05241704023D

 12 13  0     0  0  0  0  0  0999 V2000
   -2.1163   -0.0001   -0.9493 O   0  0  0  0  0  0  0  0  0  0  0  0
   -0.4559   -0.7241    0.7907 C   0  0  0  0  0  0  0  0  0  0  0  0
   -0.4557    0.7246    0.7906 C   0  0  0  0  0  0  0  0  0  0  0  0
   -1.3744    0.0003   -0.0373 C   0  0  0  0  0  0  0  0  0  0  0  0
    0.6025   -1.4052    0.1955 C   0  0  0  0  0  0  0  0  0  0  0  0
    0.6031    1.4051    0.1952 C   0  0  0  0  0  0  0  0  0  0  0  0
    1.5982   -0.7000   -0.4926 C   0  0  0  0  0  0  0  0  0  0  0  0
    1.5985    0.6995   -0.4928 C   0  0  0  0  0  0  0  0  0  0  0  0
    0.6923   -2.4804    0.3203 H   0  0  0  0  0  0  0  0  0  0  0  0
    0.6932    2.4804    0.3198 H   0  0  0  0  0  0  0  0  0  0  0  0
    2.4118   -1.2400   -0.9686 H   0  0  0  0  0  0  0  0  0  0  0  0
    2.4123    1.2390   -0.9690 H   0  0  0  0  0  0  0  0  0  0  0  0
  1  4  2  0  0  0  0
  2  3  1  0  0  0  0
  2  4  1  0  0  0  0
  2  5  2  0  0  0  0
  3  4  1  0  0  0  0
  3  6  2  0  0  0  0
  5  7  1  0  0  0  0
  5  9  1  0  0  0  0
  6  8  1  0  0  0  0
  6 10  1  0  0  0  0
  7  8  2  0  0  0  0
  7 11  1  0  0  0  0
  8 12  1  0  0  0  0
M  END
> <PUBCHEM_COMPOUND_CID>
16201897

> <PUBCHEM_CONFORMER_RMSD>
0.4

> <PUBCHEM_CONFORMER_DIVERSEORDER>
1

> <PUBCHEM_MMFF94_PARTIAL_CHARGES>
12
1 -0.57
10 0.15
11 0.15
12 0.15
2 0.09
3 0.09
4 0.4
5 -0.15
6 -0.15
7 -0.15
8 -0.15
9 0.15

> <PUBCHEM_EFFECTIVE_ROTOR_COUNT>
0

> <PUBCHEM_PHARMACOPHORE_FEATURES>
2
1 1 acceptor
7 2 3 4 5 6 7 8 rings

> <PUBCHEM_HEAVY_ATOM_COUNT>
8

> <PUBCHEM_ATOM_DEF_STEREO_COUNT>
0

> <PUBCHEM_ATOM_UDEF_STEREO_COUNT>
0

> <PUBCHEM_BOND_DEF_STEREO_COUNT>
0

> <PUBCHEM_BOND_UDEF_STEREO_COUNT>
0

> <PUBCHEM_ISOTOPIC_ATOM_COUNT>
0

> <PUBCHEM_COMPONENT_COUNT>
1

> <PUBCHEM_CACTVS_TAUTO_COUNT>
1

> <PUBCHEM_CONFORMER_ID>
00F738A900000001

> <PUBCHEM_MMFF94_ENERGY>
91.786

> <PUBCHEM_FEATURE_SELFOVERLAP>
10.148

> <PUBCHEM_SHAPE_FINGERPRINT>
12423570 1 8395270993346328342
137420 1 14783529375729634515
18185500 45 18197501714190656878
21040471 1 18263644146187799056
29004967 10 18343589550707116443
5084963 1 17604443997127362066

> <PUBCHEM_SHAPE_MULTIPOLES>
158.77
2.07
1.38
0.92
0.25
0
-0.02
0
-0.69
-0.4
0.16
0.23
0
0

> <PUBCHEM_SHAPE_SELFOVERLAP>
348.393

> <PUBCHEM_SHAPE_VOLUME>
85

> <PUBCHEM_COORDINATE_TYPE>
2
5
10

$$$$
