15045905
  -OEChem-07031707093D

 16 17  0     1  0  0  0  0  0999 V2000
   -2.0694   -1.4554    0.4692 O   0  0  0  0  0  0  0  0  0  0  0  0
   -2.0685    1.4560    0.4699 O   0  0  0  0  0  0  0  0  0  0  0  0
    0.0712   -0.7848   -0.8542 C   0  0  2  0  0  0  0  0  0  0  0  0
    0.0714    0.7847   -0.8543 C   0  0  1  0  0  0  0  0  0  0  0  0
   -1.2508   -0.7427   -0.0406 C   0  0  0  0  0  0  0  0  0  0  0  0
   -1.2505    0.7430   -0.0404 C   0  0  0  0  0  0  0  0  0  0  0  0
    1.1581   -1.4539   -0.0997 C   0  0  0  0  0  0  0  0  0  0  0  0
    1.1587    1.4536   -0.1003 C   0  0  0  0  0  0  0  0  0  0  0  0
    2.0898   -0.7220    0.5254 C   0  0  0  0  0  0  0  0  0  0  0  0
    2.0902    0.7215    0.5249 C   0  0  0  0  0  0  0  0  0  0  0  0
   -0.0623   -1.2210   -1.8508 H   0  0  0  0  0  0  0  0  0  0  0  0
   -0.0625    1.2208   -1.8509 H   0  0  0  0  0  0  0  0  0  0  0  0
    1.1940   -2.5376   -0.0713 H   0  0  0  0  0  0  0  0  0  0  0  0
    1.1952    2.5373   -0.0725 H   0  0  0  0  0  0  0  0  0  0  0  0
    2.8880   -1.2145    1.0717 H   0  0  0  0  0  0  0  0  0  0  0  0
    2.8887    1.2139    1.0708 H   0  0  0  0  0  0  0  0  0  0  0  0
  1  5  2  0  0  0  0
  2  6  2  0  0  0  0
  3  4  1  0  0  0  0
  3  5  1  0  0  0  0
  3  7  1  0  0  0  0
  3 11  1  0  0  0  0
  4  6  1  0  0  0  0
  4  8  1  0  0  0  0
  4 12  1  0  0  0  0
  5  6  1  0  0  0  0
  7  9  2  0  0  0  0
  7 13  1  0  0  0  0
  8 10  2  0  0  0  0
  8 14  1  0  0  0  0
  9 10  1  0  0  0  0
  9 15  1  0  0  0  0
 10 16  1  0  0  0  0
M  END
> <PUBCHEM_COMPOUND_CID>
15045905

> <PUBCHEM_CONFORMER_RMSD>
0.4

> <PUBCHEM_CONFORMER_DIVERSEORDER>
1
2
3

> <PUBCHEM_MMFF94_PARTIAL_CHARGES>
14
1 -0.57
10 -0.15
13 0.15
14 0.15
15 0.15
16 0.15
2 -0.57
3 0.17
4 0.17
5 0.52
6 0.52
7 -0.27
8 -0.27
9 -0.15

> <PUBCHEM_EFFECTIVE_ROTOR_COUNT>
0

> <PUBCHEM_PHARMACOPHORE_FEATURES>
4
1 1 acceptor
1 2 acceptor
4 3 4 5 6 rings
6 3 4 7 8 9 10 rings

> <PUBCHEM_HEAVY_ATOM_COUNT>
10

> <PUBCHEM_ATOM_DEF_STEREO_COUNT>
0

> <PUBCHEM_ATOM_UDEF_STEREO_COUNT>
2

> <PUBCHEM_BOND_DEF_STEREO_COUNT>
0

> <PUBCHEM_BOND_UDEF_STEREO_COUNT>
0

> <PUBCHEM_ISOTOPIC_ATOM_COUNT>
0

> <PUBCHEM_COMPONENT_COUNT>
1

> <PUBCHEM_CACTVS_TAUTO_COUNT>
7

> <PUBCHEM_CONFORMER_ID>
00E5951100000001

> <PUBCHEM_MMFF94_ENERGY>
19.2541

> <PUBCHEM_FEATURE_SELFOVERLAP>
20.82

> <PUBCHEM_SHAPE_FINGERPRINT>
12423570 1 8168674725095133590
137420 1 11157150640635987790
16945 1 18410572885650372884
18185500 45 17691115363482173630
21040471 1 18267592307712167205
23552423 10 18187368756868417750
241688 4 18187640280390046880
2748010 2 18411695474417063838
29004967 10 17605260985827460652
369184 2 17459168755659612864
5084963 1 17845944051177866490

> <PUBCHEM_SHAPE_MULTIPOLES>
194.06
2.78
1.73
0.84
0.11
0
0.1
0
-0.79
0.15
-0.08
-0.03
0
0

> <PUBCHEM_SHAPE_SELFOVERLAP>
418.68

> <PUBCHEM_SHAPE_VOLUME>
104

> <PUBCHEM_COORDINATE_TYPE>
2
5
10

$$$$
