587795
  -OEChem-05241704033D

 19 21  0     0  0  0  0  0  0999 V2000
    0.0001   -0.2219    0.0006 C   0  0  0  0  0  0  0  0  0  0  0  0
    0.0000   -2.2797    0.0000 C   0  0  0  0  0  0  0  0  0  0  0  0
    1.0097   -1.1378    0.0001 C   0  0  0  0  0  0  0  0  0  0  0  0
   -1.0098   -1.1378    0.0001 C   0  0  0  0  0  0  0  0  0  0  0  0
    0.0001    1.1513    0.0004 C   0  0  0  0  0  0  0  0  0  0  0  0
    2.2810   -0.6376   -0.0003 C   0  0  0  0  0  0  0  0  0  0  0  0
   -2.2810   -0.6376   -0.0004 C   0  0  0  0  0  0  0  0  0  0  0  0
    1.3162    1.6724   -0.0001 C   0  0  0  0  0  0  0  0  0  0  0  0
   -1.3162    1.6724    0.0001 C   0  0  0  0  0  0  0  0  0  0  0  0
    2.4315    0.7781   -0.0003 C   0  0  0  0  0  0  0  0  0  0  0  0
   -2.4316    0.7781   -0.0003 C   0  0  0  0  0  0  0  0  0  0  0  0
    0.0000   -2.9182   -0.8901 H   0  0  0  0  0  0  0  0  0  0  0  0
    0.0000   -2.9183    0.8901 H   0  0  0  0  0  0  0  0  0  0  0  0
    3.1500   -1.2848   -0.0008 H   0  0  0  0  0  0  0  0  0  0  0  0
   -3.1500   -1.2847   -0.0009 H   0  0  0  0  0  0  0  0  0  0  0  0
    1.4841    2.7454   -0.0004 H   0  0  0  0  0  0  0  0  0  0  0  0
   -1.4842    2.7454   -0.0002 H   0  0  0  0  0  0  0  0  0  0  0  0
    3.4359    1.1977   -0.0006 H   0  0  0  0  0  0  0  0  0  0  0  0
   -3.4359    1.1977   -0.0007 H   0  0  0  0  0  0  0  0  0  0  0  0
  1  3  1  0  0  0  0
  1  4  1  0  0  0  0
  1  5  2  0  0  0  0
  2  3  1  0  0  0  0
  2  4  1  0  0  0  0
  2 12  1  0  0  0  0
  2 13  1  0  0  0  0
  3  6  2  0  0  0  0
  4  7  2  0  0  0  0
  5  8  1  0  0  0  0
  5  9  1  0  0  0  0
  6 10  1  0  0  0  0
  6 14  1  0  0  0  0
  7 11  1  0  0  0  0
  7 15  1  0  0  0  0
  8 10  2  0  0  0  0
  8 16  1  0  0  0  0
  9 11  2  0  0  0  0
  9 17  1  0  0  0  0
 10 18  1  0  0  0  0
 11 19  1  0  0  0  0
M  END
> <PUBCHEM_COMPOUND_CID>
587795

> <PUBCHEM_CONFORMER_RMSD>
0.4

> <PUBCHEM_CONFORMER_DIVERSEORDER>
1

> <PUBCHEM_MMFF94_PARTIAL_CHARGES>
15
10 -0.15
11 -0.15
14 0.15
15 0.15
16 0.15
17 0.15
18 0.15
19 0.15
2 0.22
3 -0.11
4 -0.11
6 -0.15
7 -0.15
8 -0.15
9 -0.15

> <PUBCHEM_EFFECTIVE_ROTOR_COUNT>
0.2

> <PUBCHEM_PHARMACOPHORE_FEATURES>
3
4 1 2 3 4 rings
6 1 3 5 6 8 10 rings
6 1 4 5 7 9 11 rings

> <PUBCHEM_HEAVY_ATOM_COUNT>
11

> <PUBCHEM_ATOM_DEF_STEREO_COUNT>
0

> <PUBCHEM_ATOM_UDEF_STEREO_COUNT>
0

> <PUBCHEM_BOND_DEF_STEREO_COUNT>
0

> <PUBCHEM_BOND_UDEF_STEREO_COUNT>
0

> <PUBCHEM_ISOTOPIC_ATOM_COUNT>
0

> <PUBCHEM_COMPONENT_COUNT>
1

> <PUBCHEM_CACTVS_TAUTO_COUNT>
1

> <PUBCHEM_CONFORMER_ID>
0008F81300000001

> <PUBCHEM_MMFF94_ENERGY>
59.6806

> <PUBCHEM_FEATURE_SELFOVERLAP>
15.87

> <PUBCHEM_SHAPE_FINGERPRINT>
11206711 2 18409449167645056357
12423570 1 8312504340790398593
12524768 44 18268716189095124486
16945 1 18410573985151496614
18185500 45 17906733600877632051
193761 8 18410855438664186631
21040471 1 18338799021610587744
2334 1 18410855494519581157
23402655 69 18268131086486705789
23463225 33 18262514763500420298
23552423 10 18261394485352119310
23559900 14 18199196088592479358
241688 4 16897929358694564938
2748010 2 18410294717793238005
5084963 1 18202565076873988755
528886 8 18411132528579274657
66348 1 18410012113234886088

> <PUBCHEM_SHAPE_MULTIPOLES>
226.37
3.14
2.14
0.62
0
0.32
0
-0.55
0
0
0
0
0
0

> <PUBCHEM_SHAPE_SELFOVERLAP>
520.323

> <PUBCHEM_SHAPE_VOLUME>
111.5

> <PUBCHEM_COORDINATE_TYPE>
2
5
10

$$$$
