520348
  -OEChem-05231711423D

 19 20  0     1  0  0  0  0  0999 V2000
    0.3372   -0.7702    0.6172 C   0  0  2  0  0  0  0  0  0  0  0  0
    0.3305    0.7731    0.6167 C   0  0  1  0  0  0  0  0  0  0  0  0
    1.5007   -0.7602   -0.3947 C   0  0  0  0  0  0  0  0  0  0  0  0
    1.4803    0.7728   -0.4111 C   0  0  0  0  0  0  0  0  0  0  0  0
   -1.0413   -1.1991    0.1181 C   0  0  0  0  0  0  0  0  0  0  0  0
   -1.0560    1.1883    0.1302 C   0  0  0  0  0  0  0  0  0  0  0  0
   -1.5514   -0.0047   -0.6764 C   0  0  0  0  0  0  0  0  0  0  0  0
    0.6078   -1.2284    1.5752 H   0  0  0  0  0  0  0  0  0  0  0  0
    0.6096    1.2340    1.5710 H   0  0  0  0  0  0  0  0  0  0  0  0
    1.2841   -1.2272   -1.3607 H   0  0  0  0  0  0  0  0  0  0  0  0
    2.4316   -1.1846   -0.0042 H   0  0  0  0  0  0  0  0  0  0  0  0
    2.4047    1.2316   -0.0451 H   0  0  0  0  0  0  0  0  0  0  0  0
    1.2368    1.2114   -1.3842 H   0  0  0  0  0  0  0  0  0  0  0  0
   -1.7036   -1.3851    0.9719 H   0  0  0  0  0  0  0  0  0  0  0  0
   -1.0020   -2.1112   -0.4847 H   0  0  0  0  0  0  0  0  0  0  0  0
   -1.0326    2.1077   -0.4624 H   0  0  0  0  0  0  0  0  0  0  0  0
   -1.7169    1.3547    0.9892 H   0  0  0  0  0  0  0  0  0  0  0  0
   -1.1042    0.0027   -1.6774 H   0  0  0  0  0  0  0  0  0  0  0  0
   -2.6390   -0.0109   -0.7906 H   0  0  0  0  0  0  0  0  0  0  0  0
  1  2  1  0  0  0  0
  1  3  1  0  0  0  0
  1  5  1  0  0  0  0
  1  8  1  0  0  0  0
  2  4  1  0  0  0  0
  2  6  1  0  0  0  0
  2  9  1  0  0  0  0
  3  4  1  0  0  0  0
  3 10  1  0  0  0  0
  3 11  1  0  0  0  0
  4 12  1  0  0  0  0
  4 13  1  0  0  0  0
  5  7  1  0  0  0  0
  5 14  1  0  0  0  0
  5 15  1  0  0  0  0
  6  7  1  0  0  0  0
  6 16  1  0  0  0  0
  6 17  1  0  0  0  0
  7 18  1  0  0  0  0
  7 19  1  0  0  0  0
M  END
> <PUBCHEM_COMPOUND_CID>
520348

> <PUBCHEM_CONFORMER_RMSD>
0.4

> <PUBCHEM_CONFORMER_DIVERSEORDER>
1
2
3

> <PUBCHEM_MMFF94_PARTIAL_CHARGES>
0

> <PUBCHEM_EFFECTIVE_ROTOR_COUNT>
1

> <PUBCHEM_PHARMACOPHORE_FEATURES>
2
4 1 2 3 4 rings
7 1 2 3 4 5 6 7 rings

> <PUBCHEM_HEAVY_ATOM_COUNT>
7

> <PUBCHEM_ATOM_DEF_STEREO_COUNT>
0

> <PUBCHEM_ATOM_UDEF_STEREO_COUNT>
2

> <PUBCHEM_BOND_DEF_STEREO_COUNT>
0

> <PUBCHEM_BOND_UDEF_STEREO_COUNT>
0

> <PUBCHEM_ISOTOPIC_ATOM_COUNT>
0

> <PUBCHEM_COMPONENT_COUNT>
1

> <PUBCHEM_CACTVS_TAUTO_COUNT>
1

> <PUBCHEM_CONFORMER_ID>
0007F09C00000001

> <PUBCHEM_MMFF94_ENERGY>
18.1075

> <PUBCHEM_FEATURE_SELFOVERLAP>
14.512

> <PUBCHEM_SHAPE_FINGERPRINT>
137420 1 14319834093605104106
18185500 45 17905317429843105779
20096714 4 18261678047519509421
21040471 1 18265891367561136977
24536 1 18410284822193849668
29004967 10 17702952563885416418
5943 1 9106767643328759089

> <PUBCHEM_SHAPE_MULTIPOLES>
144.06
1.94
1.36
0.84
0.09
0
0
0
0.43
-0.12
-0.09
0
0
-0.01

> <PUBCHEM_SHAPE_SELFOVERLAP>
295.659

> <PUBCHEM_SHAPE_VOLUME>
83.1

> <PUBCHEM_COORDINATE_TYPE>
2
5
10

$$$$
