14752
  -OEChem-05241703563D

 16 16  0     0  0  0  0  0  0999 V2000
    1.9272   -0.7428   -0.2445 C   0  0  0  0  0  0  0  0  0  0  0  0
    1.9272    0.7428    0.2444 C   0  0  0  0  0  0  0  0  0  0  0  0
   -1.9272   -0.7428    0.2445 C   0  0  0  0  0  0  0  0  0  0  0  0
   -1.9272    0.7428   -0.2445 C   0  0  0  0  0  0  0  0  0  0  0  0
    0.5981   -1.3669   -0.0628 C   0  0  0  0  0  0  0  0  0  0  0  0
    0.5982    1.3669    0.0629 C   0  0  0  0  0  0  0  0  0  0  0  0
   -0.5982   -1.3669    0.0629 C   0  0  0  0  0  0  0  0  0  0  0  0
   -0.5981    1.3669   -0.0628 C   0  0  0  0  0  0  0  0  0  0  0  0
    2.7078   -1.3048    0.2789 H   0  0  0  0  0  0  0  0  0  0  0  0
    2.1776   -0.7591   -1.3124 H   0  0  0  0  0  0  0  0  0  0  0  0
    2.7077    1.3047   -0.2790 H   0  0  0  0  0  0  0  0  0  0  0  0
    2.1778    0.7591    1.3123 H   0  0  0  0  0  0  0  0  0  0  0  0
   -2.7077   -1.3047   -0.2788 H   0  0  0  0  0  0  0  0  0  0  0  0
   -2.1776   -0.7590    1.3124 H   0  0  0  0  0  0  0  0  0  0  0  0
   -2.7078    1.3048    0.2788 H   0  0  0  0  0  0  0  0  0  0  0  0
   -2.1777    0.7591   -1.3125 H   0  0  0  0  0  0  0  0  0  0  0  0
  1  2  1  0  0  0  0
  1  5  1  0  0  0  0
  1  9  1  0  0  0  0
  1 10  1  0  0  0  0
  2  6  1  0  0  0  0
  2 11  1  0  0  0  0
  2 12  1  0  0  0  0
  3  4  1  0  0  0  0
  3  7  1  0  0  0  0
  3 13  1  0  0  0  0
  3 14  1  0  0  0  0
  4  8  1  0  0  0  0
  4 15  1  0  0  0  0
  4 16  1  0  0  0  0
  5  7  3  0  0  0  0
  6  8  3  0  0  0  0
M  END
> <PUBCHEM_COMPOUND_CID>
14752

> <PUBCHEM_CONFORMER_RMSD>
0.4

> <PUBCHEM_CONFORMER_DIVERSEORDER>
1

> <PUBCHEM_MMFF94_PARTIAL_CHARGES>
8
1 0.2
2 0.2
3 0.2
4 0.2
5 -0.2
6 -0.2
7 -0.2
8 -0.2

> <PUBCHEM_EFFECTIVE_ROTOR_COUNT>
0.8

> <PUBCHEM_PHARMACOPHORE_FEATURES>
0

> <PUBCHEM_HEAVY_ATOM_COUNT>
8

> <PUBCHEM_ATOM_DEF_STEREO_COUNT>
0

> <PUBCHEM_ATOM_UDEF_STEREO_COUNT>
0

> <PUBCHEM_BOND_DEF_STEREO_COUNT>
0

> <PUBCHEM_BOND_UDEF_STEREO_COUNT>
0

> <PUBCHEM_ISOTOPIC_ATOM_COUNT>
0

> <PUBCHEM_COMPONENT_COUNT>
1

> <PUBCHEM_CACTVS_TAUTO_COUNT>
1

> <PUBCHEM_CONFORMER_ID>
000039A000000001

> <PUBCHEM_MMFF94_ENERGY>
38.5645

> <PUBCHEM_FEATURE_SELFOVERLAP>
0

> <PUBCHEM_SHAPE_FINGERPRINT>
18185500 45 16032107867924785269
21040471 1 18410291436543796724
23235685 24 18410851062081949508
23552423 10 18260271845383645518
241688 4 18337676317006471824
2748010 2 18410575093253013663
29004967 10 18409452521956478952
5084963 1 18272654600954007907
66348 1 18266740168973090818

> <PUBCHEM_SHAPE_MULTIPOLES>
164.64
2.65
1.83
0.65
0
0
0
0
0
0
0
0
0
0.2

> <PUBCHEM_SHAPE_SELFOVERLAP>
324.641

> <PUBCHEM_SHAPE_VOLUME>
92.1

> <PUBCHEM_COORDINATE_TYPE>
2
5
10

$$$$
