556743
  -OEChem-05231711543D

 20 21  0     0  0  0  0  0  0999 V2000
    0.0000    0.6636   -0.0171 C   0  0  0  0  0  0  0  0  0  0  0  0
    0.0000   -0.6636   -0.0172 C   0  0  0  0  0  0  0  0  0  0  0  0
    1.3525    1.2471   -0.0707 C   0  0  0  0  0  0  0  0  0  0  0  0
   -1.3525    1.2471   -0.0706 C   0  0  0  0  0  0  0  0  0  0  0  0
    1.3525   -1.2472   -0.0707 C   0  0  0  0  0  0  0  0  0  0  0  0
   -1.3525   -1.2471   -0.0706 C   0  0  0  0  0  0  0  0  0  0  0  0
    2.2326    0.0000    0.1585 C   0  0  0  0  0  0  0  0  0  0  0  0
   -2.2325    0.0000    0.1584 C   0  0  0  0  0  0  0  0  0  0  0  0
    1.5484    1.6957   -1.0496 H   0  0  0  0  0  0  0  0  0  0  0  0
    1.5182    1.9943    0.7104 H   0  0  0  0  0  0  0  0  0  0  0  0
   -1.5182    1.9942    0.7107 H   0  0  0  0  0  0  0  0  0  0  0  0
   -1.5484    1.6960   -1.0494 H   0  0  0  0  0  0  0  0  0  0  0  0
    1.5181   -1.9942    0.7106 H   0  0  0  0  0  0  0  0  0  0  0  0
    1.5483   -1.6958   -1.0495 H   0  0  0  0  0  0  0  0  0  0  0  0
   -1.5483   -1.6959   -1.0494 H   0  0  0  0  0  0  0  0  0  0  0  0
   -1.5181   -1.9941    0.7106 H   0  0  0  0  0  0  0  0  0  0  0  0
    3.1113    0.0000   -0.4953 H   0  0  0  0  0  0  0  0  0  0  0  0
    2.6046    0.0000    1.1917 H   0  0  0  0  0  0  0  0  0  0  0  0
   -2.6048   -0.0001    1.1914 H   0  0  0  0  0  0  0  0  0  0  0  0
   -3.1113   -0.0001   -0.4956 H   0  0  0  0  0  0  0  0  0  0  0  0
  1  2  2  0  0  0  0
  1  3  1  0  0  0  0
  1  4  1  0  0  0  0
  2  5  1  0  0  0  0
  2  6  1  0  0  0  0
  3  7  1  0  0  0  0
  3  9  1  0  0  0  0
  3 10  1  0  0  0  0
  4  8  1  0  0  0  0
  4 11  1  0  0  0  0
  4 12  1  0  0  0  0
  5  7  1  0  0  0  0
  5 13  1  0  0  0  0
  5 14  1  0  0  0  0
  6  8  1  0  0  0  0
  6 15  1  0  0  0  0
  6 16  1  0  0  0  0
  7 17  1  0  0  0  0
  7 18  1  0  0  0  0
  8 19  1  0  0  0  0
  8 20  1  0  0  0  0
M  END
> <PUBCHEM_COMPOUND_CID>
556743

> <PUBCHEM_CONFORMER_RMSD>
0.4

> <PUBCHEM_CONFORMER_DIVERSEORDER>
1

> <PUBCHEM_MMFF94_PARTIAL_CHARGES>
6
1 -0.28
2 -0.28
3 0.14
4 0.14
5 0.14
6 0.14

> <PUBCHEM_EFFECTIVE_ROTOR_COUNT>
1.2

> <PUBCHEM_PHARMACOPHORE_FEATURES>
2
5 1 2 3 5 7 rings
5 1 2 4 6 8 rings

> <PUBCHEM_HEAVY_ATOM_COUNT>
8

> <PUBCHEM_ATOM_DEF_STEREO_COUNT>
0

> <PUBCHEM_ATOM_UDEF_STEREO_COUNT>
0

> <PUBCHEM_BOND_DEF_STEREO_COUNT>
0

> <PUBCHEM_BOND_UDEF_STEREO_COUNT>
0

> <PUBCHEM_ISOTOPIC_ATOM_COUNT>
0

> <PUBCHEM_COMPONENT_COUNT>
1

> <PUBCHEM_CACTVS_TAUTO_COUNT>
1

> <PUBCHEM_CONFORMER_ID>
00087EC700000001

> <PUBCHEM_MMFF94_ENERGY>
13.9059

> <PUBCHEM_FEATURE_SELFOVERLAP>
10.354

> <PUBCHEM_SHAPE_FINGERPRINT>
16945 1 18410575084663078926
18185500 45 18267582592511896375
21040471 1 18339080380496626356
23552423 10 18333453157458694942
24536 1 18338503196979290644
2748010 2 18050567348204601532
29004967 10 18260835903232764626
5084963 1 18343582944989321432

> <PUBCHEM_SHAPE_MULTIPOLES>
164.64
2.78
1.5
0.63
0
0
0
0
-0.13
0
0.06
0
0
0

> <PUBCHEM_SHAPE_SELFOVERLAP>
346.6

> <PUBCHEM_SHAPE_VOLUME>
89.4

> <PUBCHEM_COORDINATE_TYPE>
2
5
10

$$$$
