9989775
  -OEChem-05241704113D

 33 36  0     0  0  0  0  0  0999 V2000
    0.0001    0.0000    0.0003 C   0  0  0  0  0  0  0  0  0  0  0  0
   -0.9154   -0.9221   -0.8252 C   0  0  0  0  0  0  0  0  0  0  0  0
    0.9156    0.9226   -0.8246 C   0  0  0  0  0  0  0  0  0  0  0  0
    0.9194   -0.9191    0.8250 C   0  0  0  0  0  0  0  0  0  0  0  0
   -0.9192    0.9186    0.8256 C   0  0  0  0  0  0  0  0  0  0  0  0
   -0.7324   -2.3055   -0.1994 C   0  0  0  0  0  0  0  0  0  0  0  0
   -2.3201   -0.3461   -0.6838 C   0  0  0  0  0  0  0  0  0  0  0  0
    2.3208    0.3474   -0.6831 C   0  0  0  0  0  0  0  0  0  0  0  0
    0.7316    2.3060   -0.1992 C   0  0  0  0  0  0  0  0  0  0  0  0
    0.7341   -2.3053    0.2058 C   0  0  0  0  0  0  0  0  0  0  0  0
    2.3241   -0.3444    0.6759 C   0  0  0  0  0  0  0  0  0  0  0  0
   -2.3236    0.3431    0.6765 C   0  0  0  0  0  0  0  0  0  0  0  0
   -0.7350    2.3048    0.2062 C   0  0  0  0  0  0  0  0  0  0  0  0
   -0.6203   -0.9667   -1.8803 H   0  0  0  0  0  0  0  0  0  0  0  0
    0.6209    0.9670   -1.8797 H   0  0  0  0  0  0  0  0  0  0  0  0
    0.6291   -0.9598    1.8816 H   0  0  0  0  0  0  0  0  0  0  0  0
   -0.6286    0.9593    1.8821 H   0  0  0  0  0  0  0  0  0  0  0  0
   -0.9635   -3.1078   -0.9067 H   0  0  0  0  0  0  0  0  0  0  0  0
   -1.3691   -2.4408    0.6827 H   0  0  0  0  0  0  0  0  0  0  0  0
   -3.1029   -1.1065   -0.7637 H   0  0  0  0  0  0  0  0  0  0  0  0
   -2.4940    0.3967   -1.4714 H   0  0  0  0  0  0  0  0  0  0  0  0
    3.1031    1.1084   -0.7615 H   0  0  0  0  0  0  0  0  0  0  0  0
    2.4955   -0.3941   -1.4718 H   0  0  0  0  0  0  0  0  0  0  0  0
    0.9621    3.1083   -0.9066 H   0  0  0  0  0  0  0  0  0  0  0  0
    1.3682    2.4419    0.6829 H   0  0  0  0  0  0  0  0  0  0  0  0
    0.9645   -3.1046    0.9166 H   0  0  0  0  0  0  0  0  0  0  0  0
    1.3705   -2.4452   -0.6759 H   0  0  0  0  0  0  0  0  0  0  0  0
    3.1068   -1.1056    0.7503 H   0  0  0  0  0  0  0  0  0  0  0  0
    2.5033    0.3969    1.4637 H   0  0  0  0  0  0  0  0  0  0  0  0
   -3.1066    1.1036    0.7525 H   0  0  0  0  0  0  0  0  0  0  0  0
   -2.5019   -0.3996    1.4632 H   0  0  0  0  0  0  0  0  0  0  0  0
   -0.9658    3.1040    0.9169 H   0  0  0  0  0  0  0  0  0  0  0  0
   -1.3716    2.4444   -0.6754 H   0  0  0  0  0  0  0  0  0  0  0  0
  1  2  1  0  0  0  0
  1  3  1  0  0  0  0
  1  4  1  0  0  0  0
  1  5  1  0  0  0  0
  2  6  1  0  0  0  0
  2  7  1  0  0  0  0
  2 14  1  0  0  0  0
  3  8  1  0  0  0  0
  3  9  1  0  0  0  0
  3 15  1  0  0  0  0
  4 10  1  0  0  0  0
  4 11  1  0  0  0  0
  4 16  1  0  0  0  0
  5 12  1  0  0  0  0
  5 13  1  0  0  0  0
  5 17  1  0  0  0  0
  6 10  1  0  0  0  0
  6 18  1  0  0  0  0
  6 19  1  0  0  0  0
  7 12  1  0  0  0  0
  7 20  1  0  0  0  0
  7 21  1  0  0  0  0
  8 11  1  0  0  0  0
  8 22  1  0  0  0  0
  8 23  1  0  0  0  0
  9 13  1  0  0  0  0
  9 24  1  0  0  0  0
  9 25  1  0  0  0  0
 10 26  1  0  0  0  0
 10 27  1  0  0  0  0
 11 28  1  0  0  0  0
 11 29  1  0  0  0  0
 12 30  1  0  0  0  0
 12 31  1  0  0  0  0
 13 32  1  0  0  0  0
 13 33  1  0  0  0  0
M  END
> <PUBCHEM_COMPOUND_CID>
9989775

> <PUBCHEM_CONFORMER_RMSD>
0.6

> <PUBCHEM_CONFORMER_DIVERSEORDER>
1

> <PUBCHEM_MMFF94_PARTIAL_CHARGES>
0

> <PUBCHEM_EFFECTIVE_ROTOR_COUNT>
1.6

> <PUBCHEM_PHARMACOPHORE_FEATURES>
4
5 1 2 4 6 10 rings
5 1 2 5 7 12 rings
5 1 3 4 8 11 rings
5 1 3 5 9 13 rings

> <PUBCHEM_HEAVY_ATOM_COUNT>
13

> <PUBCHEM_ATOM_DEF_STEREO_COUNT>
0

> <PUBCHEM_ATOM_UDEF_STEREO_COUNT>
0

> <PUBCHEM_BOND_DEF_STEREO_COUNT>
0

> <PUBCHEM_BOND_UDEF_STEREO_COUNT>
0

> <PUBCHEM_ISOTOPIC_ATOM_COUNT>
0

> <PUBCHEM_COMPONENT_COUNT>
1

> <PUBCHEM_CACTVS_TAUTO_COUNT>
1

> <PUBCHEM_CONFORMER_ID>
00986E8F00000001

> <PUBCHEM_MMFF94_ENERGY>
47.1282

> <PUBCHEM_FEATURE_SELFOVERLAP>
21.754

> <PUBCHEM_SHAPE_FINGERPRINT>
10353120 184 18339659887554190341
12423570 1 9364306883284003630
13024252 1 14707486924098779698
13172582 1 18410575106137915528
14761567 1 17688584287604270182
14817 1 14659027512182504303
14993402 34 18410575097553255815
15557651 10 17677044771410615325
15881359 60 17251990880546471581
16945 1 18410855464423129094
18185500 45 18410848871669532687
193761 8 17689998933835683328
21501502 16 17546165199282820177
22344851 341 17688586482374652514
22802520 49 18057914435689798350
2334 1 17978228592722588356
23388829 49 18337942385919576241
23419403 2 16099861114389645000
23559900 14 18341623668016612004
241688 4 17905607700849652226
2748010 2 17978229361521721486
5084963 1 18059019358633209218
528886 8 18410294717803774523
53812653 8 18336276669059292708
63268167 104 18261950851052182052

> <PUBCHEM_SHAPE_MULTIPOLES>
267.53
2.7
2.55
0.98
0
0
0
0
0
0
0
0
0
-0.49

> <PUBCHEM_SHAPE_SELFOVERLAP>
593.764

> <PUBCHEM_SHAPE_VOLUME>
138

> <PUBCHEM_COORDINATE_TYPE>
2
5
10

$$$$
