140242
  -OEChem-05241703523D

 23 24  0     1  0  0  0  0  0999 V2000
    0.1195    1.2834   -0.4983 C   0  0  1  0  0  0  0  0  0  0  0  0
    0.1004    0.0811   -1.4361 C   0  0  0  0  0  0  0  0  0  0  0  0
   -1.2678    1.3499    0.2134 C   0  0  0  0  0  0  0  0  0  0  0  0
    1.3242    1.1503    0.4887 C   0  0  0  0  0  0  0  0  0  0  0  0
   -0.0497   -1.0634   -0.4714 C   0  0  0  0  0  0  0  0  0  0  0  0
   -1.7628    0.0217    0.8485 C   0  0  0  0  0  0  0  0  0  0  0  0
   -1.4556   -1.2440    0.0151 C   0  0  0  0  0  0  0  0  0  0  0  0
    2.0139   -0.2459    0.4827 C   0  0  0  0  0  0  0  0  0  0  0  0
    0.9779   -1.3331    0.3573 C   0  0  0  0  0  0  0  0  0  0  0  0
    0.2453    2.2079   -1.0751 H   0  0  0  0  0  0  0  0  0  0  0  0
    1.0197    0.0027   -2.0278 H   0  0  0  0  0  0  0  0  0  0  0  0
   -0.7339    0.1251   -2.1453 H   0  0  0  0  0  0  0  0  0  0  0  0
   -2.0114    1.6515   -0.5366 H   0  0  0  0  0  0  0  0  0  0  0  0
   -1.2623    2.1389    0.9746 H   0  0  0  0  0  0  0  0  0  0  0  0
    0.9979    1.3913    1.5083 H   0  0  0  0  0  0  0  0  0  0  0  0
    2.0821    1.9002    0.2295 H   0  0  0  0  0  0  0  0  0  0  0  0
   -2.8405    0.0848    1.0389 H   0  0  0  0  0  0  0  0  0  0  0  0
   -1.2854   -0.0811    1.8325 H   0  0  0  0  0  0  0  0  0  0  0  0
   -2.1462   -1.3295   -0.8311 H   0  0  0  0  0  0  0  0  0  0  0  0
   -1.5732   -2.1441    0.6283 H   0  0  0  0  0  0  0  0  0  0  0  0
    2.5739   -0.3687    1.4165 H   0  0  0  0  0  0  0  0  0  0  0  0
    2.7376   -0.3224   -0.3372 H   0  0  0  0  0  0  0  0  0  0  0  0
    0.8558   -2.0093    1.1982 H   0  0  0  0  0  0  0  0  0  0  0  0
  1  2  1  0  0  0  0
  1  3  1  0  0  0  0
  1  4  1  0  0  0  0
  1 10  1  0  0  0  0
  2  5  1  0  0  0  0
  2 11  1  0  0  0  0
  2 12  1  0  0  0  0
  3  6  1  0  0  0  0
  3 13  1  0  0  0  0
  3 14  1  0  0  0  0
  4  8  1  0  0  0  0
  4 15  1  0  0  0  0
  4 16  1  0  0  0  0
  5  7  1  0  0  0  0
  5  9  2  0  0  0  0
  6  7  1  0  0  0  0
  6 17  1  0  0  0  0
  6 18  1  0  0  0  0
  7 19  1  0  0  0  0
  7 20  1  0  0  0  0
  8  9  1  0  0  0  0
  8 21  1  0  0  0  0
  8 22  1  0  0  0  0
  9 23  1  0  0  0  0
M  END
> <PUBCHEM_COMPOUND_CID>
140242

> <PUBCHEM_CONFORMER_RMSD>
0.4

> <PUBCHEM_CONFORMER_DIVERSEORDER>
1

> <PUBCHEM_MMFF94_PARTIAL_CHARGES>
6
2 0.14
23 0.15
5 -0.28
7 0.14
8 0.14
9 -0.29

> <PUBCHEM_EFFECTIVE_ROTOR_COUNT>
1.2

> <PUBCHEM_PHARMACOPHORE_FEATURES>
2
6 1 2 3 5 6 7 rings
6 1 2 4 5 8 9 rings

> <PUBCHEM_HEAVY_ATOM_COUNT>
9

> <PUBCHEM_ATOM_DEF_STEREO_COUNT>
0

> <PUBCHEM_ATOM_UDEF_STEREO_COUNT>
1

> <PUBCHEM_BOND_DEF_STEREO_COUNT>
0

> <PUBCHEM_BOND_UDEF_STEREO_COUNT>
0

> <PUBCHEM_ISOTOPIC_ATOM_COUNT>
0

> <PUBCHEM_COMPONENT_COUNT>
1

> <PUBCHEM_CACTVS_TAUTO_COUNT>
1

> <PUBCHEM_CONFORMER_ID>
000223D200000001

> <PUBCHEM_MMFF94_ENERGY>
36.7481

> <PUBCHEM_FEATURE_SELFOVERLAP>
11.317

> <PUBCHEM_SHAPE_FINGERPRINT>
12423570 1 9214036637679392525
13024252 1 14635696481342664394
16945 1 18412262817847683250
18185500 45 17835234927992560467
21040471 1 18194971733666537805
241688 4 18337383954356133658
29004967 10 16298939986916223176
5084963 1 17847059999492529602

> <PUBCHEM_SHAPE_MULTIPOLES>
185.22
2.13
1.65
1.05
0.09
0.06
-0.25
-0.07
0.68
-0.09
0.04
-0.02
0.04
-0.05

> <PUBCHEM_SHAPE_SELFOVERLAP>
382.91

> <PUBCHEM_SHAPE_VOLUME>
101.8

> <PUBCHEM_COORDINATE_TYPE>
2
5
10

$$$$
