12603464
  -OEChem-05231711393D

 20 22  0     0  0  0  0  0  0999 V2000
   -2.1790   -1.1788    0.0002 O   0  0  0  0  0  0  0  0  0  0  0  0
   -2.3364    1.0952   -0.0001 O   0  0  0  0  0  0  0  0  0  0  0  0
   -0.1569    0.0312   -0.0004 C   0  0  0  0  0  0  0  0  0  0  0  0
    0.7369    0.6325   -1.0831 C   0  0  0  0  0  0  0  0  0  0  0  0
    0.7356    0.6305    1.0844 C   0  0  0  0  0  0  0  0  0  0  0  0
    0.6822   -1.2450   -0.0012 C   0  0  0  0  0  0  0  0  0  0  0  0
    1.4367    1.4736    0.0019 C   0  0  0  0  0  0  0  0  0  0  0  0
    1.3732   -0.7558   -1.2888 C   0  0  0  0  0  0  0  0  0  0  0  0
    1.3717   -0.7582    1.2881 C   0  0  0  0  0  0  0  0  0  0  0  0
   -1.6639    0.0749   -0.0009 C   0  0  0  0  0  0  0  0  0  0  0  0
    0.2880    1.1392   -1.9364 H   0  0  0  0  0  0  0  0  0  0  0  0
    0.2858    1.1355    1.9381 H   0  0  0  0  0  0  0  0  0  0  0  0
    0.2146   -2.2282   -0.0023 H   0  0  0  0  0  0  0  0  0  0  0  0
    2.5305    1.4483    0.0025 H   0  0  0  0  0  0  0  0  0  0  0  0
    1.1183    2.5225    0.0027 H   0  0  0  0  0  0  0  0  0  0  0  0
    1.0100   -1.2641   -2.1896 H   0  0  0  0  0  0  0  0  0  0  0  0
    2.4668   -0.7909   -1.2940 H   0  0  0  0  0  0  0  0  0  0  0  0
    2.4652   -0.7934    1.2944 H   0  0  0  0  0  0  0  0  0  0  0  0
    1.0075   -1.2683    2.1874 H   0  0  0  0  0  0  0  0  0  0  0  0
   -3.1600   -1.1720    0.0008 H   0  0  0  0  0  0  0  0  0  0  0  0
  1 10  1  0  0  0  0
  1 20  1  0  0  0  0
  2 10  2  0  0  0  0
  3  4  1  0  0  0  0
  3  5  1  0  0  0  0
  3  6  1  0  0  0  0
  3 10  1  0  0  0  0
  4  7  1  0  0  0  0
  4  8  1  0  0  0  0
  4 11  1  0  0  0  0
  5  7  1  0  0  0  0
  5  9  1  0  0  0  0
  5 12  1  0  0  0  0
  6  8  1  0  0  0  0
  6  9  1  0  0  0  0
  6 13  1  0  0  0  0
  7 14  1  0  0  0  0
  7 15  1  0  0  0  0
  8 16  1  0  0  0  0
  8 17  1  0  0  0  0
  9 18  1  0  0  0  0
  9 19  1  0  0  0  0
M  END
> <PUBCHEM_COMPOUND_CID>
12603464

> <PUBCHEM_CONFORMER_RMSD>
0.4

> <PUBCHEM_CONFORMER_DIVERSEORDER>
1

> <PUBCHEM_MMFF94_PARTIAL_CHARGES>
5
1 -0.65
10 0.67
2 -0.57
20 0.5
3 0.05

> <PUBCHEM_EFFECTIVE_ROTOR_COUNT>
1.6

> <PUBCHEM_PHARMACOPHORE_FEATURES>
4
1 1 acceptor
1 2 acceptor
3 1 2 10 anion
7 3 4 5 6 7 8 9 rings

> <PUBCHEM_HEAVY_ATOM_COUNT>
10

> <PUBCHEM_ATOM_DEF_STEREO_COUNT>
0

> <PUBCHEM_ATOM_UDEF_STEREO_COUNT>
0

> <PUBCHEM_BOND_DEF_STEREO_COUNT>
0

> <PUBCHEM_BOND_UDEF_STEREO_COUNT>
0

> <PUBCHEM_ISOTOPIC_ATOM_COUNT>
0

> <PUBCHEM_COMPONENT_COUNT>
1

> <PUBCHEM_CACTVS_TAUTO_COUNT>
1

> <PUBCHEM_CONFORMER_ID>
00C0504800000001

> <PUBCHEM_MMFF94_ENERGY>
29.9688

> <PUBCHEM_FEATURE_SELFOVERLAP>
20.353

> <PUBCHEM_SHAPE_FINGERPRINT>
12423570 1 15523234091286277754
13024252 1 11032579087508941794
137420 1 15009562114354509700
14128692 85 17749673961361399098
16945 1 18266458707065898374
20653091 64 18186801370160954361
21040471 1 18266458895933728580
24536 1 18060135423275999017
29004967 10 17131844122585500134
5084963 1 18126569143933768032
68250623 7 18121776394692588298

> <PUBCHEM_SHAPE_MULTIPOLES>
194.06
2.43
1.4
1.2
1.88
0.07
0
0.08
0
-0.17
0
-0.63
-0.11
0

> <PUBCHEM_SHAPE_SELFOVERLAP>
432.088

> <PUBCHEM_SHAPE_VOLUME>
108.6

> <PUBCHEM_COORDINATE_TYPE>
2
5
10

$$$$
