14833747
  -OEChem-05231711593D

  6  6  0     0  0  0  0  0  0999 V2000
    0.7468    1.1841   -0.0002 O   0  0  0  0  0  0  0  0  0  0  0  0
   -0.7464    1.1843    0.0001 O   0  0  0  0  0  0  0  0  0  0  0  0
    1.5519   -1.0294    0.0002 O   0  0  0  0  0  0  0  0  0  0  0  0
   -1.5523   -1.0291   -0.0004 O   0  0  0  0  0  0  0  0  0  0  0  0
    0.7354   -0.1550   -0.0003 C   0  0  0  0  0  0  0  0  0  0  0  0
   -0.7355   -0.1549    0.0006 C   0  0  0  0  0  0  0  0  0  0  0  0
  1  2  1  0  0  0  0
  1  5  1  0  0  0  0
  2  6  1  0  0  0  0
  3  5  2  0  0  0  0
  4  6  2  0  0  0  0
  5  6  1  0  0  0  0
M  END
> <PUBCHEM_COMPOUND_CID>
14833747

> <PUBCHEM_CONFORMER_RMSD>
0.4

> <PUBCHEM_CONFORMER_DIVERSEORDER>
1

> <PUBCHEM_MMFF94_PARTIAL_CHARGES>
6
1 -0.15
2 -0.15
3 -0.57
4 -0.57
5 0.72
6 0.72

> <PUBCHEM_EFFECTIVE_ROTOR_COUNT>
0.4

> <PUBCHEM_PHARMACOPHORE_FEATURES>
3
1 3 acceptor
1 4 acceptor
4 1 2 5 6 rings

> <PUBCHEM_HEAVY_ATOM_COUNT>
6

> <PUBCHEM_ATOM_DEF_STEREO_COUNT>
0

> <PUBCHEM_ATOM_UDEF_STEREO_COUNT>
0

> <PUBCHEM_BOND_DEF_STEREO_COUNT>
0

> <PUBCHEM_BOND_UDEF_STEREO_COUNT>
0

> <PUBCHEM_ISOTOPIC_ATOM_COUNT>
0

> <PUBCHEM_COMPONENT_COUNT>
1

> <PUBCHEM_CACTVS_TAUTO_COUNT>
1

> <PUBCHEM_CONFORMER_ID>
00E2585300000001

> <PUBCHEM_MMFF94_ENERGY>
14.995

> <PUBCHEM_FEATURE_SELFOVERLAP>
15.223

> <PUBCHEM_SHAPE_FINGERPRINT>
139733 1 9223231849122416259
16714656 1 17833844771854443038
21015797 1 9222967949157116612
21040471 1 17690280413191893696
29004967 10 18118125994275880131
5943 1 13050107251000519060

> <PUBCHEM_SHAPE_MULTIPOLES>
100
1.64
1.28
0.54
0
0.19
0
-0.56
0
0
0
0
-0.01
0

> <PUBCHEM_SHAPE_SELFOVERLAP>
203.885

> <PUBCHEM_SHAPE_VOLUME>
56.3

> <PUBCHEM_COORDINATE_TYPE>
2
5
10

$$$$
