12657448
  -OEChem-05231711453D

 19 20  0     0  0  0  0  0  0999 V2000
   -0.5218   -0.0001    0.0006 C   0  0  0  0  0  0  0  0  0  0  0  0
   -1.8320    0.1092   -0.7423 C   0  0  0  0  0  0  0  0  0  0  0  0
   -1.8336   -0.1091    0.7408 C   0  0  0  0  0  0  0  0  0  0  0  0
    0.3490    1.2164    0.1921 C   0  0  0  0  0  0  0  0  0  0  0  0
    0.3493   -1.2167   -0.1900 C   0  0  0  0  0  0  0  0  0  0  0  0
    1.7442    0.7338   -0.2071 C   0  0  0  0  0  0  0  0  0  0  0  0
    1.7449   -0.7334    0.2059 C   0  0  0  0  0  0  0  0  0  0  0  0
   -2.1388   -0.7180   -1.3713 H   0  0  0  0  0  0  0  0  0  0  0  0
   -2.1413    1.0811   -1.1070 H   0  0  0  0  0  0  0  0  0  0  0  0
   -2.1415    0.7181    1.3692 H   0  0  0  0  0  0  0  0  0  0  0  0
   -2.1438   -1.0811    1.1048 H   0  0  0  0  0  0  0  0  0  0  0  0
    0.3444    1.5196    1.2454 H   0  0  0  0  0  0  0  0  0  0  0  0
    0.0363    2.0696   -0.4177 H   0  0  0  0  0  0  0  0  0  0  0  0
    0.3430   -1.5221   -1.2427 H   0  0  0  0  0  0  0  0  0  0  0  0
    0.0375   -2.0687    0.4221 H   0  0  0  0  0  0  0  0  0  0  0  0
    2.5378    1.3098    0.2768 H   0  0  0  0  0  0  0  0  0  0  0  0
    1.8729    0.8149   -1.2932 H   0  0  0  0  0  0  0  0  0  0  0  0
    2.5378   -1.3090   -0.2796 H   0  0  0  0  0  0  0  0  0  0  0  0
    1.8761   -0.8143    1.2917 H   0  0  0  0  0  0  0  0  0  0  0  0
  1  2  1  0  0  0  0
  1  3  1  0  0  0  0
  1  4  1  0  0  0  0
  1  5  1  0  0  0  0
  2  3  1  0  0  0  0
  2  8  1  0  0  0  0
  2  9  1  0  0  0  0
  3 10  1  0  0  0  0
  3 11  1  0  0  0  0
  4  6  1  0  0  0  0
  4 12  1  0  0  0  0
  4 13  1  0  0  0  0
  5  7  1  0  0  0  0
  5 14  1  0  0  0  0
  5 15  1  0  0  0  0
  6  7  1  0  0  0  0
  6 16  1  0  0  0  0
  6 17  1  0  0  0  0
  7 18  1  0  0  0  0
  7 19  1  0  0  0  0
M  END
> <PUBCHEM_COMPOUND_CID>
12657448

> <PUBCHEM_CONFORMER_RMSD>
0.4

> <PUBCHEM_CONFORMER_DIVERSEORDER>
1

> <PUBCHEM_MMFF94_PARTIAL_CHARGES>
9
1 -0.19
10 0.1
11 0.1
2 -0.2
3 -0.2
4 0.09
5 0.09
8 0.1
9 0.1

> <PUBCHEM_EFFECTIVE_ROTOR_COUNT>
1.2

> <PUBCHEM_PHARMACOPHORE_FEATURES>
1
5 1 4 5 6 7 rings

> <PUBCHEM_HEAVY_ATOM_COUNT>
7

> <PUBCHEM_ATOM_DEF_STEREO_COUNT>
0

> <PUBCHEM_ATOM_UDEF_STEREO_COUNT>
0

> <PUBCHEM_BOND_DEF_STEREO_COUNT>
0

> <PUBCHEM_BOND_UDEF_STEREO_COUNT>
0

> <PUBCHEM_ISOTOPIC_ATOM_COUNT>
0

> <PUBCHEM_COMPONENT_COUNT>
1

> <PUBCHEM_CACTVS_TAUTO_COUNT>
1

> <PUBCHEM_CONFORMER_ID>
00C1232800000001

> <PUBCHEM_MMFF94_ENERGY>
13.284

> <PUBCHEM_FEATURE_SELFOVERLAP>
5.074

> <PUBCHEM_SHAPE_FINGERPRINT>
18185500 45 18201994417507044543
20096714 4 18341053028984702632
21040471 1 18339641273308353952
23552423 10 18046357322841246574
24536 1 18334010566793430689
29004967 10 18334581221854780200
5084963 1 18187927343034761481

> <PUBCHEM_SHAPE_MULTIPOLES>
144.06
2.52
1.2
0.8
0.25
0
0
0
0
-0.41
0
0.26
0
-0.01

> <PUBCHEM_SHAPE_SELFOVERLAP>
290.603

> <PUBCHEM_SHAPE_VOLUME>
84.8

> <PUBCHEM_COORDINATE_TYPE>
2
5
10

$$$$
