609354
  -OEChem-05241704063D

 28 30  0     0  0  0  0  0  0999 V2000
   -1.3864    1.4564    0.0000 C   0  0  0  0  0  0  0  0  0  0  0  0
   -1.3856   -1.4571    0.0000 C   0  0  0  0  0  0  0  0  0  0  0  0
    1.3855    1.4571   -0.0001 C   0  0  0  0  0  0  0  0  0  0  0  0
    1.3864   -1.4565    0.0001 C   0  0  0  0  0  0  0  0  0  0  0  0
   -2.6513    0.6782    0.0000 C   0  0  0  0  0  0  0  0  0  0  0  0
   -2.6508   -0.6795   -0.0001 C   0  0  0  0  0  0  0  0  0  0  0  0
    2.6509    0.6794   -0.0001 C   0  0  0  0  0  0  0  0  0  0  0  0
    2.6512   -0.6781    0.0000 C   0  0  0  0  0  0  0  0  0  0  0  0
   -0.6994    1.6293   -1.2095 C   0  0  0  0  0  0  0  0  0  0  0  0
   -0.6984   -1.6293    1.2096 C   0  0  0  0  0  0  0  0  0  0  0  0
    0.6984    1.6295   -1.2096 C   0  0  0  0  0  0  0  0  0  0  0  0
    0.6994   -1.6290    1.2096 C   0  0  0  0  0  0  0  0  0  0  0  0
   -0.6993    1.6291    1.2096 C   0  0  0  0  0  0  0  0  0  0  0  0
   -0.6984   -1.6295   -1.2095 C   0  0  0  0  0  0  0  0  0  0  0  0
    0.6984    1.6293    1.2096 C   0  0  0  0  0  0  0  0  0  0  0  0
    0.6994   -1.6292   -1.2095 C   0  0  0  0  0  0  0  0  0  0  0  0
   -3.5783    1.2405    0.0000 H   0  0  0  0  0  0  0  0  0  0  0  0
   -3.5776   -1.2424   -0.0002 H   0  0  0  0  0  0  0  0  0  0  0  0
    3.5777    1.2423   -0.0002 H   0  0  0  0  0  0  0  0  0  0  0  0
    3.5783   -1.2405    0.0000 H   0  0  0  0  0  0  0  0  0  0  0  0
   -1.2189    1.5355   -2.1611 H   0  0  0  0  0  0  0  0  0  0  0  0
   -1.2178   -1.5355    2.1611 H   0  0  0  0  0  0  0  0  0  0  0  0
    1.2178    1.5359   -2.1612 H   0  0  0  0  0  0  0  0  0  0  0  0
    1.2188   -1.5351    2.1611 H   0  0  0  0  0  0  0  0  0  0  0  0
   -1.2187    1.5352    2.1612 H   0  0  0  0  0  0  0  0  0  0  0  0
   -1.2178   -1.5359   -2.1611 H   0  0  0  0  0  0  0  0  0  0  0  0
    1.2179    1.5357    2.1611 H   0  0  0  0  0  0  0  0  0  0  0  0
    1.2188   -1.5354   -2.1610 H   0  0  0  0  0  0  0  0  0  0  0  0
  1  5  1  0  0  0  0
  1  9  2  0  0  0  0
  1 13  1  0  0  0  0
  2  6  1  0  0  0  0
  2 10  2  0  0  0  0
  2 14  1  0  0  0  0
  3  7  1  0  0  0  0
  3 11  2  0  0  0  0
  3 15  1  0  0  0  0
  4  8  1  0  0  0  0
  4 12  2  0  0  0  0
  4 16  1  0  0  0  0
  5  6  2  0  0  0  0
  5 17  1  0  0  0  0
  6 18  1  0  0  0  0
  7  8  2  0  0  0  0
  7 19  1  0  0  0  0
  8 20  1  0  0  0  0
  9 11  1  0  0  0  0
  9 21  1  0  0  0  0
 10 12  1  0  0  0  0
 10 22  1  0  0  0  0
 11 23  1  0  0  0  0
 12 24  1  0  0  0  0
 13 15  2  0  0  0  0
 13 25  1  0  0  0  0
 14 16  2  0  0  0  0
 14 26  1  0  0  0  0
 15 27  1  0  0  0  0
 16 28  1  0  0  0  0
M  END
> <PUBCHEM_COMPOUND_CID>
609354

> <PUBCHEM_CONFORMER_RMSD>
0.4

> <PUBCHEM_CONFORMER_DIVERSEORDER>
1

> <PUBCHEM_MMFF94_PARTIAL_CHARGES>
28
1 0.03
10 -0.15
11 -0.15
12 -0.15
13 -0.15
14 -0.15
15 -0.15
16 -0.15
17 0.15
18 0.15
19 0.15
2 0.03
20 0.15
21 0.15
22 0.15
23 0.15
24 0.15
25 0.15
26 0.15
27 0.15
28 0.15
3 0.03
4 0.03
5 -0.18
6 -0.18
7 -0.18
8 -0.18
9 -0.15

> <PUBCHEM_EFFECTIVE_ROTOR_COUNT>
0

> <PUBCHEM_PHARMACOPHORE_FEATURES>
2
6 1 3 9 11 13 15 rings
6 2 4 10 12 14 16 rings

> <PUBCHEM_HEAVY_ATOM_COUNT>
16

> <PUBCHEM_ATOM_DEF_STEREO_COUNT>
0

> <PUBCHEM_ATOM_UDEF_STEREO_COUNT>
0

> <PUBCHEM_BOND_DEF_STEREO_COUNT>
0

> <PUBCHEM_BOND_UDEF_STEREO_COUNT>
2

> <PUBCHEM_ISOTOPIC_ATOM_COUNT>
0

> <PUBCHEM_COMPONENT_COUNT>
1

> <PUBCHEM_CACTVS_TAUTO_COUNT>
1

> <PUBCHEM_CONFORMER_ID>
00094C4A00000001

> <PUBCHEM_MMFF94_ENERGY>
110.0997

> <PUBCHEM_FEATURE_SELFOVERLAP>
10.149

> <PUBCHEM_SHAPE_FINGERPRINT>
10863032 1 18412545409500092480
10948715 1 18410573985151840909
12423570 1 14376684269273448918
141345 1 12489553575792377411
144361 1 18410855460128162139
15775835 57 18410578383198124644
15881359 60 17973971180715706797
16945 1 18410573989446418438
20511035 2 18122350343545421807
20691752 17 17748829596956032269
20905425 154 18339644546147540103
22344851 341 18335977558788583330
23419403 2 16112245115737828499
23559900 14 18129389375087323500
241688 4 18048326543565261680
2748010 2 18050567644557344804
2897 32 18408886247698344336

> <PUBCHEM_SHAPE_MULTIPOLES>
329.27
3.1
2.59
1.35
0
0
0
0
0
0
0
0
0
0

> <PUBCHEM_SHAPE_SELFOVERLAP>
737.044

> <PUBCHEM_SHAPE_VOLUME>
155.4

> <PUBCHEM_COORDINATE_TYPE>
2
5
10

$$$$
