9548696
  -OEChem-05231711503D

  8 10  0     0  0  0  0  0  0999 V2000
   -0.6187    0.4930    0.4714 C   0  0  0  0  0  0  0  0  0  0  0  0
    0.5283    0.6007   -0.4538 C   0  0  0  0  0  0  0  0  0  0  0  0
   -0.5233   -0.5795   -0.4769 C   0  0  0  0  0  0  0  0  0  0  0  0
    0.6137   -0.5142    0.4593 C   0  0  0  0  0  0  0  0  0  0  0  0
   -0.8283    0.6227    1.5098 H   0  0  0  0  0  0  0  0  0  0  0  0
    0.7133    0.7974   -1.4864 H   0  0  0  0  0  0  0  0  0  0  0  0
   -0.7033   -0.7449   -1.5154 H   0  0  0  0  0  0  0  0  0  0  0  0
    0.8144   -0.6772    1.4949 H   0  0  0  0  0  0  0  0  0  0  0  0
  1  2  1  0  0  0  0
  1  3  1  0  0  0  0
  1  4  1  0  0  0  0
  1  5  1  0  0  0  0
  2  3  1  0  0  0  0
  2  4  1  0  0  0  0
  2  6  1  0  0  0  0
  3  4  1  0  0  0  0
  3  7  1  0  0  0  0
  4  8  1  0  0  0  0
M  END
> <PUBCHEM_COMPOUND_CID>
9548696

> <PUBCHEM_CONFORMER_RMSD>
0.4

> <PUBCHEM_CONFORMER_DIVERSEORDER>
1

> <PUBCHEM_MMFF94_PARTIAL_CHARGES>
8
1 -0.1
2 -0.1
3 -0.1
4 -0.1
5 0.1
6 0.1
7 0.1
8 0.1

> <PUBCHEM_EFFECTIVE_ROTOR_COUNT>
0

> <PUBCHEM_PHARMACOPHORE_FEATURES>
1
4 1 2 3 4 rings

> <PUBCHEM_HEAVY_ATOM_COUNT>
4

> <PUBCHEM_ATOM_DEF_STEREO_COUNT>
0

> <PUBCHEM_ATOM_UDEF_STEREO_COUNT>
0

> <PUBCHEM_BOND_DEF_STEREO_COUNT>
0

> <PUBCHEM_BOND_UDEF_STEREO_COUNT>
0

> <PUBCHEM_ISOTOPIC_ATOM_COUNT>
0

> <PUBCHEM_COMPONENT_COUNT>
1

> <PUBCHEM_CACTVS_TAUTO_COUNT>
1

> <PUBCHEM_CONFORMER_ID>
0091B39800000001

> <PUBCHEM_MMFF94_ENERGY>
57.9031

> <PUBCHEM_FEATURE_SELFOVERLAP>
5.074

> <PUBCHEM_SHAPE_FINGERPRINT>
21015797 1 9222691988912996359
5943 1 13456831789108559877

> <PUBCHEM_SHAPE_MULTIPOLES>
82.32
0.94
0.92
0.83
0
0
0
0
-0.02
-0.01
0.02
0
0
-0.14

> <PUBCHEM_SHAPE_SELFOVERLAP>
173.277

> <PUBCHEM_SHAPE_VOLUME>
50.4

> <PUBCHEM_COORDINATE_TYPE>
2
5
10

$$$$
