91587591
  -OEChem-02211704373D

 20 19  0     1  0  0  0  0  0999 V2000
    0.1143   -0.0286   -0.3351 C   0  0  1  0  0  0  0  0  0  0  0  0
   -0.5325    1.3474   -0.6600 C   0  0  0  0  0  0  0  0  0  0  0  0
    0.6740   -0.6050   -1.6552 C   0  0  0  0  0  0  0  0  0  0  0  0
   -1.2185    2.0603    0.5039 C   0  0  0  0  0  0  0  0  0  0  0  0
    1.1668    0.1124    0.7543 C   0  0  0  0  0  0  0  0  0  0  0  0
   -0.9199   -0.9719    0.1612 C   0  0  0  0  0  0  0  0  0  0  0  0
    2.4721   -0.1771    0.6732 C   0  0  0  0  0  0  0  0  0  0  0  0
   -1.7564   -1.7375    0.5577 C   0  0  0  0  0  0  0  0  0  0  0  0
    0.2324    2.0219   -1.0679 H   0  0  0  0  0  0  0  0  0  0  0  0
   -1.2820    1.2179   -1.4531 H   0  0  0  0  0  0  0  0  0  0  0  0
    1.4386    0.0504   -2.0883 H   0  0  0  0  0  0  0  0  0  0  0  0
    1.1182   -1.5977   -1.5101 H   0  0  0  0  0  0  0  0  0  0  0  0
   -0.1193   -0.7211   -2.4045 H   0  0  0  0  0  0  0  0  0  0  0  0
   -2.0100    1.4488    0.9466 H   0  0  0  0  0  0  0  0  0  0  0  0
   -0.5068    2.3329    1.2883 H   0  0  0  0  0  0  0  0  0  0  0  0
   -1.6794    2.9876    0.1470 H   0  0  0  0  0  0  0  0  0  0  0  0
    0.8172    0.4734    1.7212 H   0  0  0  0  0  0  0  0  0  0  0  0
    3.1132   -0.0371    1.5375 H   0  0  0  0  0  0  0  0  0  0  0  0
    2.9347   -0.5512   -0.2318 H   0  0  0  0  0  0  0  0  0  0  0  0
   -2.4980   -2.4159    0.9093 H   0  0  0  0  0  0  0  0  0  0  0  0
  1  2  1  0  0  0  0
  1  3  1  0  0  0  0
  1  5  1  0  0  0  0
  1  6  1  0  0  0  0
  2  4  1  0  0  0  0
  2  9  1  0  0  0  0
  2 10  1  0  0  0  0
  3 11  1  0  0  0  0
  3 12  1  0  0  0  0
  3 13  1  0  0  0  0
  4 14  1  0  0  0  0
  4 15  1  0  0  0  0
  4 16  1  0  0  0  0
  5  7  2  0  0  0  0
  5 17  1  0  0  0  0
  6  8  3  0  0  0  0
  7 18  1  0  0  0  0
  7 19  1  0  0  0  0
  8 20  1  0  0  0  0
M  END
> <PUBCHEM_COMPOUND_CID>
91587591

> <PUBCHEM_CONFORMER_RMSD>
0.4

> <PUBCHEM_CONFORMER_DIVERSEORDER>
1
2

> <PUBCHEM_MMFF94_PARTIAL_CHARGES>
9
1 0.34
17 0.15
18 0.15
19 0.15
20 0.18
5 -0.29
6 -0.2
7 -0.3
8 -0.18

> <PUBCHEM_EFFECTIVE_ROTOR_COUNT>
2

> <PUBCHEM_PHARMACOPHORE_FEATURES>
5
1 3 hydrophobe
1 4 hydrophobe
1 7 hydrophobe
1 8 hydrophobe
4 1 2 5 6 hydrophobe

> <PUBCHEM_HEAVY_ATOM_COUNT>
8

> <PUBCHEM_ATOM_DEF_STEREO_COUNT>
0

> <PUBCHEM_ATOM_UDEF_STEREO_COUNT>
1

> <PUBCHEM_BOND_DEF_STEREO_COUNT>
0

> <PUBCHEM_BOND_UDEF_STEREO_COUNT>
0

> <PUBCHEM_ISOTOPIC_ATOM_COUNT>
0

> <PUBCHEM_COMPONENT_COUNT>
1

> <PUBCHEM_CACTVS_TAUTO_COUNT>
1

> <PUBCHEM_CONFORMER_ID>
0575840700000001

> <PUBCHEM_MMFF94_ENERGY>
10.4866

> <PUBCHEM_FEATURE_SELFOVERLAP>
25.691

> <PUBCHEM_SHAPE_FINGERPRINT>
12423570 1 16825948992458259511
137420 1 17842541960216953551
14128692 85 17024308745810391266
20653085 51 16557884742208495896
20653091 64 17685511135736094419
21040471 1 17976272243793746965
21930827 45 18126023575718144924
23552449 11 17761216913634359763
29004967 10 17900527175598188674
5084963 1 17765400207369495896
5943 1 17168157714453608190

> <PUBCHEM_SHAPE_MULTIPOLES>
164.64
2.32
1.92
1.23
1.11
0.6
-0.48
-0.49
0.85
-1.5
0.28
0.32
-0.14
0.19

> <PUBCHEM_SHAPE_SELFOVERLAP>
304.929

> <PUBCHEM_SHAPE_VOLUME>
105.4

> <PUBCHEM_COORDINATE_TYPE>
2
5
10

$$$$
